version 3
run NetBuilder-0-20240603-06:14:00-51227
attr configname NetBuilder
attr datetime 20240603-06:14:00
attr datetimef 20240603-061400
attr experiment NetBuilder
attr inifile omnetpp.ini
attr iterationvars ""
attr iterationvarsd ""
attr iterationvarsf ""
attr measurement ""
attr network networks.Dynamic
attr processid 51227
attr repetition 0
attr replication #0
attr resultdir results
attr runnumber 0
attr seedset 0
config network networks.Dynamic
config **.address "int(replace(fullName(), \"Node:\", \"\"))"
config **.destAddresses "\"1 50\""
config **.appType "\"App\""
config **.app.packetLength "4096 bytes"

par Dynamic.Node:1.port$o[0].channel typename "\"ned.DatarateChannel\""
par Dynamic.Node:1.port$o[0].channel disabled false
attr mutable ""
par Dynamic.Node:1.port$o[0].channel delay 0.01s
attr mutable ""
attr unit s
par Dynamic.Node:1.port$o[0].channel datarate 1e+06bps
attr mutable ""
attr unit bps
par Dynamic.Node:1.port$o[0].channel ber 0
attr mutable ""
par Dynamic.Node:1.port$o[0].channel per 0
attr mutable ""
par Dynamic.Node:7.port$o[0].channel typename "\"ned.DatarateChannel\""
par Dynamic.Node:7.port$o[0].channel disabled false
attr mutable ""
par Dynamic.Node:7.port$o[0].channel delay 0.01s
attr mutable ""
attr unit s
par Dynamic.Node:7.port$o[0].channel datarate 1e+06bps
attr mutable ""
attr unit bps
par Dynamic.Node:7.port$o[0].channel ber 0
attr mutable ""
par Dynamic.Node:7.port$o[0].channel per 0
attr mutable ""
par Dynamic.Node:2.port$o[0].channel typename "\"ned.DatarateChannel\""
par Dynamic.Node:2.port$o[0].channel disabled false
attr mutable ""
par Dynamic.Node:2.port$o[0].channel delay 0.01s
attr mutable ""
attr unit s
par Dynamic.Node:2.port$o[0].channel datarate 1e+06bps
attr mutable ""
attr unit bps
par Dynamic.Node:2.port$o[0].channel ber 0
attr mutable ""
par Dynamic.Node:2.port$o[0].channel per 0
attr mutable ""
par Dynamic.Node:15.port$o[0].channel typename "\"ned.DatarateChannel\""
par Dynamic.Node:15.port$o[0].channel disabled false
attr mutable ""
par Dynamic.Node:15.port$o[0].channel delay 0.01s
attr mutable ""
attr unit s
par Dynamic.Node:15.port$o[0].channel datarate 1e+06bps
attr mutable ""
attr unit bps
par Dynamic.Node:15.port$o[0].channel ber 0
attr mutable ""
par Dynamic.Node:15.port$o[0].channel per 0
attr mutable ""
par Dynamic.Node:2.port$o[1].channel typename "\"ned.DatarateChannel\""
par Dynamic.Node:2.port$o[1].channel disabled false
attr mutable ""
par Dynamic.Node:2.port$o[1].channel delay 0.01s
attr mutable ""
attr unit s
par Dynamic.Node:2.port$o[1].channel datarate 1e+06bps
attr mutable ""
attr unit bps
par Dynamic.Node:2.port$o[1].channel ber 0
attr mutable ""
par Dynamic.Node:2.port$o[1].channel per 0
attr mutable ""
par Dynamic.Node:23.port$o[0].channel typename "\"ned.DatarateChannel\""
par Dynamic.Node:23.port$o[0].channel disabled false
attr mutable ""
par Dynamic.Node:23.port$o[0].channel delay 0.01s
attr mutable ""
attr unit s
par Dynamic.Node:23.port$o[0].channel datarate 1e+06bps
attr mutable ""
attr unit bps
par Dynamic.Node:23.port$o[0].channel ber 0
attr mutable ""
par Dynamic.Node:23.port$o[0].channel per 0
attr mutable ""
par Dynamic.Node:3.port$o[0].channel typename "\"ned.DatarateChannel\""
par Dynamic.Node:3.port$o[0].channel disabled false
attr mutable ""
par Dynamic.Node:3.port$o[0].channel delay 0.01s
attr mutable ""
attr unit s
par Dynamic.Node:3.port$o[0].channel datarate 1e+06bps
attr mutable ""
attr unit bps
par Dynamic.Node:3.port$o[0].channel ber 0
attr mutable ""
par Dynamic.Node:3.port$o[0].channel per 0
attr mutable ""
par Dynamic.Node:17.port$o[0].channel typename "\"ned.DatarateChannel\""
par Dynamic.Node:17.port$o[0].channel disabled false
attr mutable ""
par Dynamic.Node:17.port$o[0].channel delay 0.01s
attr mutable ""
attr unit s
par Dynamic.Node:17.port$o[0].channel datarate 1e+06bps
attr mutable ""
attr unit bps
par Dynamic.Node:17.port$o[0].channel ber 0
attr mutable ""
par Dynamic.Node:17.port$o[0].channel per 0
attr mutable ""
par Dynamic.Node:4.port$o[0].channel typename "\"ned.DatarateChannel\""
par Dynamic.Node:4.port$o[0].channel disabled false
attr mutable ""
par Dynamic.Node:4.port$o[0].channel delay 0.01s
attr mutable ""
attr unit s
par Dynamic.Node:4.port$o[0].channel datarate 1e+06bps
attr mutable ""
attr unit bps
par Dynamic.Node:4.port$o[0].channel ber 0
attr mutable ""
par Dynamic.Node:4.port$o[0].channel per 0
attr mutable ""
par Dynamic.Node:50.port$o[0].channel typename "\"ned.DatarateChannel\""
par Dynamic.Node:50.port$o[0].channel disabled false
attr mutable ""
par Dynamic.Node:50.port$o[0].channel delay 0.01s
attr mutable ""
attr unit s
par Dynamic.Node:50.port$o[0].channel datarate 1e+06bps
attr mutable ""
attr unit bps
par Dynamic.Node:50.port$o[0].channel ber 0
attr mutable ""
par Dynamic.Node:50.port$o[0].channel per 0
attr mutable ""
par Dynamic.Node:5.port$o[0].channel typename "\"ned.DatarateChannel\""
par Dynamic.Node:5.port$o[0].channel disabled false
attr mutable ""
par Dynamic.Node:5.port$o[0].channel delay 0.01s
attr mutable ""
attr unit s
par Dynamic.Node:5.port$o[0].channel datarate 1e+06bps
attr mutable ""
attr unit bps
par Dynamic.Node:5.port$o[0].channel ber 0
attr mutable ""
par Dynamic.Node:5.port$o[0].channel per 0
attr mutable ""
par Dynamic.Node:21.port$o[0].channel typename "\"ned.DatarateChannel\""
par Dynamic.Node:21.port$o[0].channel disabled false
attr mutable ""
par Dynamic.Node:21.port$o[0].channel delay 0.01s
attr mutable ""
attr unit s
par Dynamic.Node:21.port$o[0].channel datarate 1e+06bps
attr mutable ""
attr unit bps
par Dynamic.Node:21.port$o[0].channel ber 0
attr mutable ""
par Dynamic.Node:21.port$o[0].channel per 0
attr mutable ""
par Dynamic.Node:6.port$o[0].channel typename "\"ned.DatarateChannel\""
par Dynamic.Node:6.port$o[0].channel disabled false
attr mutable ""
par Dynamic.Node:6.port$o[0].channel delay 0.01s
attr mutable ""
attr unit s
par Dynamic.Node:6.port$o[0].channel datarate 1e+06bps
attr mutable ""
attr unit bps
par Dynamic.Node:6.port$o[0].channel ber 0
attr mutable ""
par Dynamic.Node:6.port$o[0].channel per 0
attr mutable ""
par Dynamic.Node:37.port$o[0].channel typename "\"ned.DatarateChannel\""
par Dynamic.Node:37.port$o[0].channel disabled false
attr mutable ""
par Dynamic.Node:37.port$o[0].channel delay 0.01s
attr mutable ""
attr unit s
par Dynamic.Node:37.port$o[0].channel datarate 1e+06bps
attr mutable ""
attr unit bps
par Dynamic.Node:37.port$o[0].channel ber 0
attr mutable ""
par Dynamic.Node:37.port$o[0].channel per 0
attr mutable ""
par Dynamic.Node:6.port$o[1].channel typename "\"ned.DatarateChannel\""
par Dynamic.Node:6.port$o[1].channel disabled false
attr mutable ""
par Dynamic.Node:6.port$o[1].channel delay 0.01s
attr mutable ""
attr unit s
par Dynamic.Node:6.port$o[1].channel datarate 1e+06bps
attr mutable ""
attr unit bps
par Dynamic.Node:6.port$o[1].channel ber 0
attr mutable ""
par Dynamic.Node:6.port$o[1].channel per 0
attr mutable ""
par Dynamic.Node:32.port$o[0].channel typename "\"ned.DatarateChannel\""
par Dynamic.Node:32.port$o[0].channel disabled false
attr mutable ""
par Dynamic.Node:32.port$o[0].channel delay 0.01s
attr mutable ""
attr unit s
par Dynamic.Node:32.port$o[0].channel datarate 1e+06bps
attr mutable ""
attr unit bps
par Dynamic.Node:32.port$o[0].channel ber 0
attr mutable ""
par Dynamic.Node:32.port$o[0].channel per 0
attr mutable ""
par Dynamic.Node:7.port$o[1].channel typename "\"ned.DatarateChannel\""
par Dynamic.Node:7.port$o[1].channel disabled false
attr mutable ""
par Dynamic.Node:7.port$o[1].channel delay 0.01s
attr mutable ""
attr unit s
par Dynamic.Node:7.port$o[1].channel datarate 1e+06bps
attr mutable ""
attr unit bps
par Dynamic.Node:7.port$o[1].channel ber 0
attr mutable ""
par Dynamic.Node:7.port$o[1].channel per 0
attr mutable ""
par Dynamic.Node:1.port$o[1].channel typename "\"ned.DatarateChannel\""
par Dynamic.Node:1.port$o[1].channel disabled false
attr mutable ""
par Dynamic.Node:1.port$o[1].channel delay 0.01s
attr mutable ""
attr unit s
par Dynamic.Node:1.port$o[1].channel datarate 1e+06bps
attr mutable ""
attr unit bps
par Dynamic.Node:1.port$o[1].channel ber 0
attr mutable ""
par Dynamic.Node:1.port$o[1].channel per 0
attr mutable ""
par Dynamic.Node:7.port$o[2].channel typename "\"ned.DatarateChannel\""
par Dynamic.Node:7.port$o[2].channel disabled false
attr mutable ""
par Dynamic.Node:7.port$o[2].channel delay 0.01s
attr mutable ""
attr unit s
par Dynamic.Node:7.port$o[2].channel datarate 1e+06bps
attr mutable ""
attr unit bps
par Dynamic.Node:7.port$o[2].channel ber 0
attr mutable ""
par Dynamic.Node:7.port$o[2].channel per 0
attr mutable ""
par Dynamic.Node:42.port$o[0].channel typename "\"ned.DatarateChannel\""
par Dynamic.Node:42.port$o[0].channel disabled false
attr mutable ""
par Dynamic.Node:42.port$o[0].channel delay 0.01s
attr mutable ""
attr unit s
par Dynamic.Node:42.port$o[0].channel datarate 1e+06bps
attr mutable ""
attr unit bps
par Dynamic.Node:42.port$o[0].channel ber 0
attr mutable ""
par Dynamic.Node:42.port$o[0].channel per 0
attr mutable ""
par Dynamic.Node:8.port$o[0].channel typename "\"ned.DatarateChannel\""
par Dynamic.Node:8.port$o[0].channel disabled false
attr mutable ""
par Dynamic.Node:8.port$o[0].channel delay 0.01s
attr mutable ""
attr unit s
par Dynamic.Node:8.port$o[0].channel datarate 1e+06bps
attr mutable ""
attr unit bps
par Dynamic.Node:8.port$o[0].channel ber 0
attr mutable ""
par Dynamic.Node:8.port$o[0].channel per 0
attr mutable ""
par Dynamic.Node:20.port$o[0].channel typename "\"ned.DatarateChannel\""
par Dynamic.Node:20.port$o[0].channel disabled false
attr mutable ""
par Dynamic.Node:20.port$o[0].channel delay 0.01s
attr mutable ""
attr unit s
par Dynamic.Node:20.port$o[0].channel datarate 1e+06bps
attr mutable ""
attr unit bps
par Dynamic.Node:20.port$o[0].channel ber 0
attr mutable ""
par Dynamic.Node:20.port$o[0].channel per 0
attr mutable ""
par Dynamic.Node:9.port$o[0].channel typename "\"ned.DatarateChannel\""
par Dynamic.Node:9.port$o[0].channel disabled false
attr mutable ""
par Dynamic.Node:9.port$o[0].channel delay 0.01s
attr mutable ""
attr unit s
par Dynamic.Node:9.port$o[0].channel datarate 1e+06bps
attr mutable ""
attr unit bps
par Dynamic.Node:9.port$o[0].channel ber 0
attr mutable ""
par Dynamic.Node:9.port$o[0].channel per 0
attr mutable ""
par Dynamic.Node:32.port$o[1].channel typename "\"ned.DatarateChannel\""
par Dynamic.Node:32.port$o[1].channel disabled false
attr mutable ""
par Dynamic.Node:32.port$o[1].channel delay 0.01s
attr mutable ""
attr unit s
par Dynamic.Node:32.port$o[1].channel datarate 1e+06bps
attr mutable ""
attr unit bps
par Dynamic.Node:32.port$o[1].channel ber 0
attr mutable ""
par Dynamic.Node:32.port$o[1].channel per 0
attr mutable ""
par Dynamic.Node:9.port$o[1].channel typename "\"ned.DatarateChannel\""
par Dynamic.Node:9.port$o[1].channel disabled false
attr mutable ""
par Dynamic.Node:9.port$o[1].channel delay 0.01s
attr mutable ""
attr unit s
par Dynamic.Node:9.port$o[1].channel datarate 1e+06bps
attr mutable ""
attr unit bps
par Dynamic.Node:9.port$o[1].channel ber 0
attr mutable ""
par Dynamic.Node:9.port$o[1].channel per 0
attr mutable ""
par Dynamic.Node:8.port$o[1].channel typename "\"ned.DatarateChannel\""
par Dynamic.Node:8.port$o[1].channel disabled false
attr mutable ""
par Dynamic.Node:8.port$o[1].channel delay 0.01s
attr mutable ""
attr unit s
par Dynamic.Node:8.port$o[1].channel datarate 1e+06bps
attr mutable ""
attr unit bps
par Dynamic.Node:8.port$o[1].channel ber 0
attr mutable ""
par Dynamic.Node:8.port$o[1].channel per 0
attr mutable ""
par Dynamic.Node:10.port$o[0].channel typename "\"ned.DatarateChannel\""
par Dynamic.Node:10.port$o[0].channel disabled false
attr mutable ""
par Dynamic.Node:10.port$o[0].channel delay 0.01s
attr mutable ""
attr unit s
par Dynamic.Node:10.port$o[0].channel datarate 1e+06bps
attr mutable ""
attr unit bps
par Dynamic.Node:10.port$o[0].channel ber 0
attr mutable ""
par Dynamic.Node:10.port$o[0].channel per 0
attr mutable ""
par Dynamic.Node:19.port$o[0].channel typename "\"ned.DatarateChannel\""
par Dynamic.Node:19.port$o[0].channel disabled false
attr mutable ""
par Dynamic.Node:19.port$o[0].channel delay 0.01s
attr mutable ""
attr unit s
par Dynamic.Node:19.port$o[0].channel datarate 1e+06bps
attr mutable ""
attr unit bps
par Dynamic.Node:19.port$o[0].channel ber 0
attr mutable ""
par Dynamic.Node:19.port$o[0].channel per 0
attr mutable ""
par Dynamic.Node:10.port$o[1].channel typename "\"ned.DatarateChannel\""
par Dynamic.Node:10.port$o[1].channel disabled false
attr mutable ""
par Dynamic.Node:10.port$o[1].channel delay 0.01s
attr mutable ""
attr unit s
par Dynamic.Node:10.port$o[1].channel datarate 1e+06bps
attr mutable ""
attr unit bps
par Dynamic.Node:10.port$o[1].channel ber 0
attr mutable ""
par Dynamic.Node:10.port$o[1].channel per 0
attr mutable ""
par Dynamic.Node:8.port$o[2].channel typename "\"ned.DatarateChannel\""
par Dynamic.Node:8.port$o[2].channel disabled false
attr mutable ""
par Dynamic.Node:8.port$o[2].channel delay 0.01s
attr mutable ""
attr unit s
par Dynamic.Node:8.port$o[2].channel datarate 1e+06bps
attr mutable ""
attr unit bps
par Dynamic.Node:8.port$o[2].channel ber 0
attr mutable ""
par Dynamic.Node:8.port$o[2].channel per 0
attr mutable ""
par Dynamic.Node:10.port$o[2].channel typename "\"ned.DatarateChannel\""
par Dynamic.Node:10.port$o[2].channel disabled false
attr mutable ""
par Dynamic.Node:10.port$o[2].channel delay 0.01s
attr mutable ""
attr unit s
par Dynamic.Node:10.port$o[2].channel datarate 1e+06bps
attr mutable ""
attr unit bps
par Dynamic.Node:10.port$o[2].channel ber 0
attr mutable ""
par Dynamic.Node:10.port$o[2].channel per 0
attr mutable ""
par Dynamic.Node:34.port$o[0].channel typename "\"ned.DatarateChannel\""
par Dynamic.Node:34.port$o[0].channel disabled false
attr mutable ""
par Dynamic.Node:34.port$o[0].channel delay 0.01s
attr mutable ""
attr unit s
par Dynamic.Node:34.port$o[0].channel datarate 1e+06bps
attr mutable ""
attr unit bps
par Dynamic.Node:34.port$o[0].channel ber 0
attr mutable ""
par Dynamic.Node:34.port$o[0].channel per 0
attr mutable ""
par Dynamic.Node:11.port$o[0].channel typename "\"ned.DatarateChannel\""
par Dynamic.Node:11.port$o[0].channel disabled false
attr mutable ""
par Dynamic.Node:11.port$o[0].channel delay 0.01s
attr mutable ""
attr unit s
par Dynamic.Node:11.port$o[0].channel datarate 1e+06bps
attr mutable ""
attr unit bps
par Dynamic.Node:11.port$o[0].channel ber 0
attr mutable ""
par Dynamic.Node:11.port$o[0].channel per 0
attr mutable ""
par Dynamic.Node:14.port$o[0].channel typename "\"ned.DatarateChannel\""
par Dynamic.Node:14.port$o[0].channel disabled false
attr mutable ""
par Dynamic.Node:14.port$o[0].channel delay 0.01s
attr mutable ""
attr unit s
par Dynamic.Node:14.port$o[0].channel datarate 1e+06bps
attr mutable ""
attr unit bps
par Dynamic.Node:14.port$o[0].channel ber 0
attr mutable ""
par Dynamic.Node:14.port$o[0].channel per 0
attr mutable ""
par Dynamic.Node:12.port$o[0].channel typename "\"ned.DatarateChannel\""
par Dynamic.Node:12.port$o[0].channel disabled false
attr mutable ""
par Dynamic.Node:12.port$o[0].channel delay 0.01s
attr mutable ""
attr unit s
par Dynamic.Node:12.port$o[0].channel datarate 1e+06bps
attr mutable ""
attr unit bps
par Dynamic.Node:12.port$o[0].channel ber 0
attr mutable ""
par Dynamic.Node:12.port$o[0].channel per 0
attr mutable ""
par Dynamic.Node:53.port$o[0].channel typename "\"ned.DatarateChannel\""
par Dynamic.Node:53.port$o[0].channel disabled false
attr mutable ""
par Dynamic.Node:53.port$o[0].channel delay 0.01s
attr mutable ""
attr unit s
par Dynamic.Node:53.port$o[0].channel datarate 1e+06bps
attr mutable ""
attr unit bps
par Dynamic.Node:53.port$o[0].channel ber 0
attr mutable ""
par Dynamic.Node:53.port$o[0].channel per 0
attr mutable ""
par Dynamic.Node:13.port$o[0].channel typename "\"ned.DatarateChannel\""
par Dynamic.Node:13.port$o[0].channel disabled false
attr mutable ""
par Dynamic.Node:13.port$o[0].channel delay 0.01s
attr mutable ""
attr unit s
par Dynamic.Node:13.port$o[0].channel datarate 1e+06bps
attr mutable ""
attr unit bps
par Dynamic.Node:13.port$o[0].channel ber 0
attr mutable ""
par Dynamic.Node:13.port$o[0].channel per 0
attr mutable ""
par Dynamic.Node:44.port$o[0].channel typename "\"ned.DatarateChannel\""
par Dynamic.Node:44.port$o[0].channel disabled false
attr mutable ""
par Dynamic.Node:44.port$o[0].channel delay 0.01s
attr mutable ""
attr unit s
par Dynamic.Node:44.port$o[0].channel datarate 1e+06bps
attr mutable ""
attr unit bps
par Dynamic.Node:44.port$o[0].channel ber 0
attr mutable ""
par Dynamic.Node:44.port$o[0].channel per 0
attr mutable ""
par Dynamic.Node:14.port$o[1].channel typename "\"ned.DatarateChannel\""
par Dynamic.Node:14.port$o[1].channel disabled false
attr mutable ""
par Dynamic.Node:14.port$o[1].channel delay 0.01s
attr mutable ""
attr unit s
par Dynamic.Node:14.port$o[1].channel datarate 1e+06bps
attr mutable ""
attr unit bps
par Dynamic.Node:14.port$o[1].channel ber 0
attr mutable ""
par Dynamic.Node:14.port$o[1].channel per 0
attr mutable ""
par Dynamic.Node:4.port$o[1].channel typename "\"ned.DatarateChannel\""
par Dynamic.Node:4.port$o[1].channel disabled false
attr mutable ""
par Dynamic.Node:4.port$o[1].channel delay 0.01s
attr mutable ""
attr unit s
par Dynamic.Node:4.port$o[1].channel datarate 1e+06bps
attr mutable ""
attr unit bps
par Dynamic.Node:4.port$o[1].channel ber 0
attr mutable ""
par Dynamic.Node:4.port$o[1].channel per 0
attr mutable ""
par Dynamic.Node:15.port$o[1].channel typename "\"ned.DatarateChannel\""
par Dynamic.Node:15.port$o[1].channel disabled false
attr mutable ""
par Dynamic.Node:15.port$o[1].channel delay 0.01s
attr mutable ""
attr unit s
par Dynamic.Node:15.port$o[1].channel datarate 1e+06bps
attr mutable ""
attr unit bps
par Dynamic.Node:15.port$o[1].channel ber 0
attr mutable ""
par Dynamic.Node:15.port$o[1].channel per 0
attr mutable ""
par Dynamic.Node:5.port$o[1].channel typename "\"ned.DatarateChannel\""
par Dynamic.Node:5.port$o[1].channel disabled false
attr mutable ""
par Dynamic.Node:5.port$o[1].channel delay 0.01s
attr mutable ""
attr unit s
par Dynamic.Node:5.port$o[1].channel datarate 1e+06bps
attr mutable ""
attr unit bps
par Dynamic.Node:5.port$o[1].channel ber 0
attr mutable ""
par Dynamic.Node:5.port$o[1].channel per 0
attr mutable ""
par Dynamic.Node:16.port$o[0].channel typename "\"ned.DatarateChannel\""
par Dynamic.Node:16.port$o[0].channel disabled false
attr mutable ""
par Dynamic.Node:16.port$o[0].channel delay 0.01s
attr mutable ""
attr unit s
par Dynamic.Node:16.port$o[0].channel datarate 1e+06bps
attr mutable ""
attr unit bps
par Dynamic.Node:16.port$o[0].channel ber 0
attr mutable ""
par Dynamic.Node:16.port$o[0].channel per 0
attr mutable ""
par Dynamic.Node:48.port$o[0].channel typename "\"ned.DatarateChannel\""
par Dynamic.Node:48.port$o[0].channel disabled false
attr mutable ""
par Dynamic.Node:48.port$o[0].channel delay 0.01s
attr mutable ""
attr unit s
par Dynamic.Node:48.port$o[0].channel datarate 1e+06bps
attr mutable ""
attr unit bps
par Dynamic.Node:48.port$o[0].channel ber 0
attr mutable ""
par Dynamic.Node:48.port$o[0].channel per 0
attr mutable ""
par Dynamic.Node:16.port$o[1].channel typename "\"ned.DatarateChannel\""
par Dynamic.Node:16.port$o[1].channel disabled false
attr mutable ""
par Dynamic.Node:16.port$o[1].channel delay 0.01s
attr mutable ""
attr unit s
par Dynamic.Node:16.port$o[1].channel datarate 1e+06bps
attr mutable ""
attr unit bps
par Dynamic.Node:16.port$o[1].channel ber 0
attr mutable ""
par Dynamic.Node:16.port$o[1].channel per 0
attr mutable ""
par Dynamic.Node:20.port$o[1].channel typename "\"ned.DatarateChannel\""
par Dynamic.Node:20.port$o[1].channel disabled false
attr mutable ""
par Dynamic.Node:20.port$o[1].channel delay 0.01s
attr mutable ""
attr unit s
par Dynamic.Node:20.port$o[1].channel datarate 1e+06bps
attr mutable ""
attr unit bps
par Dynamic.Node:20.port$o[1].channel ber 0
attr mutable ""
par Dynamic.Node:20.port$o[1].channel per 0
attr mutable ""
par Dynamic.Node:17.port$o[1].channel typename "\"ned.DatarateChannel\""
par Dynamic.Node:17.port$o[1].channel disabled false
attr mutable ""
par Dynamic.Node:17.port$o[1].channel delay 0.01s
attr mutable ""
attr unit s
par Dynamic.Node:17.port$o[1].channel datarate 1e+06bps
attr mutable ""
attr unit bps
par Dynamic.Node:17.port$o[1].channel ber 0
attr mutable ""
par Dynamic.Node:17.port$o[1].channel per 0
attr mutable ""
par Dynamic.Node:33.port$o[0].channel typename "\"ned.DatarateChannel\""
par Dynamic.Node:33.port$o[0].channel disabled false
attr mutable ""
par Dynamic.Node:33.port$o[0].channel delay 0.01s
attr mutable ""
attr unit s
par Dynamic.Node:33.port$o[0].channel datarate 1e+06bps
attr mutable ""
attr unit bps
par Dynamic.Node:33.port$o[0].channel ber 0
attr mutable ""
par Dynamic.Node:33.port$o[0].channel per 0
attr mutable ""
par Dynamic.Node:18.port$o[0].channel typename "\"ned.DatarateChannel\""
par Dynamic.Node:18.port$o[0].channel disabled false
attr mutable ""
par Dynamic.Node:18.port$o[0].channel delay 0.01s
attr mutable ""
attr unit s
par Dynamic.Node:18.port$o[0].channel datarate 1e+06bps
attr mutable ""
attr unit bps
par Dynamic.Node:18.port$o[0].channel ber 0
attr mutable ""
par Dynamic.Node:18.port$o[0].channel per 0
attr mutable ""
par Dynamic.Node:34.port$o[1].channel typename "\"ned.DatarateChannel\""
par Dynamic.Node:34.port$o[1].channel disabled false
attr mutable ""
par Dynamic.Node:34.port$o[1].channel delay 0.01s
attr mutable ""
attr unit s
par Dynamic.Node:34.port$o[1].channel datarate 1e+06bps
attr mutable ""
attr unit bps
par Dynamic.Node:34.port$o[1].channel ber 0
attr mutable ""
par Dynamic.Node:34.port$o[1].channel per 0
attr mutable ""
par Dynamic.Node:19.port$o[1].channel typename "\"ned.DatarateChannel\""
par Dynamic.Node:19.port$o[1].channel disabled false
attr mutable ""
par Dynamic.Node:19.port$o[1].channel delay 0.01s
attr mutable ""
attr unit s
par Dynamic.Node:19.port$o[1].channel datarate 1e+06bps
attr mutable ""
attr unit bps
par Dynamic.Node:19.port$o[1].channel ber 0
attr mutable ""
par Dynamic.Node:19.port$o[1].channel per 0
attr mutable ""
par Dynamic.Node:11.port$o[1].channel typename "\"ned.DatarateChannel\""
par Dynamic.Node:11.port$o[1].channel disabled false
attr mutable ""
par Dynamic.Node:11.port$o[1].channel delay 0.01s
attr mutable ""
attr unit s
par Dynamic.Node:11.port$o[1].channel datarate 1e+06bps
attr mutable ""
attr unit bps
par Dynamic.Node:11.port$o[1].channel ber 0
attr mutable ""
par Dynamic.Node:11.port$o[1].channel per 0
attr mutable ""
par Dynamic.Node:20.port$o[2].channel typename "\"ned.DatarateChannel\""
par Dynamic.Node:20.port$o[2].channel disabled false
attr mutable ""
par Dynamic.Node:20.port$o[2].channel delay 0.01s
attr mutable ""
attr unit s
par Dynamic.Node:20.port$o[2].channel datarate 1e+06bps
attr mutable ""
attr unit bps
par Dynamic.Node:20.port$o[2].channel ber 0
attr mutable ""
par Dynamic.Node:20.port$o[2].channel per 0
attr mutable ""
par Dynamic.Node:48.port$o[1].channel typename "\"ned.DatarateChannel\""
par Dynamic.Node:48.port$o[1].channel disabled false
attr mutable ""
par Dynamic.Node:48.port$o[1].channel delay 0.01s
attr mutable ""
attr unit s
par Dynamic.Node:48.port$o[1].channel datarate 1e+06bps
attr mutable ""
attr unit bps
par Dynamic.Node:48.port$o[1].channel ber 0
attr mutable ""
par Dynamic.Node:48.port$o[1].channel per 0
attr mutable ""
par Dynamic.Node:21.port$o[1].channel typename "\"ned.DatarateChannel\""
par Dynamic.Node:21.port$o[1].channel disabled false
attr mutable ""
par Dynamic.Node:21.port$o[1].channel delay 0.01s
attr mutable ""
attr unit s
par Dynamic.Node:21.port$o[1].channel datarate 1e+06bps
attr mutable ""
attr unit bps
par Dynamic.Node:21.port$o[1].channel ber 0
attr mutable ""
par Dynamic.Node:21.port$o[1].channel per 0
attr mutable ""
par Dynamic.Node:38.port$o[0].channel typename "\"ned.DatarateChannel\""
par Dynamic.Node:38.port$o[0].channel disabled false
attr mutable ""
par Dynamic.Node:38.port$o[0].channel delay 0.01s
attr mutable ""
attr unit s
par Dynamic.Node:38.port$o[0].channel datarate 1e+06bps
attr mutable ""
attr unit bps
par Dynamic.Node:38.port$o[0].channel ber 0
attr mutable ""
par Dynamic.Node:38.port$o[0].channel per 0
attr mutable ""
par Dynamic.Node:22.port$o[0].channel typename "\"ned.DatarateChannel\""
par Dynamic.Node:22.port$o[0].channel disabled false
attr mutable ""
par Dynamic.Node:22.port$o[0].channel delay 0.01s
attr mutable ""
attr unit s
par Dynamic.Node:22.port$o[0].channel datarate 1e+06bps
attr mutable ""
attr unit bps
par Dynamic.Node:22.port$o[0].channel ber 0
attr mutable ""
par Dynamic.Node:22.port$o[0].channel per 0
attr mutable ""
par Dynamic.Node:31.port$o[0].channel typename "\"ned.DatarateChannel\""
par Dynamic.Node:31.port$o[0].channel disabled false
attr mutable ""
par Dynamic.Node:31.port$o[0].channel delay 0.01s
attr mutable ""
attr unit s
par Dynamic.Node:31.port$o[0].channel datarate 1e+06bps
attr mutable ""
attr unit bps
par Dynamic.Node:31.port$o[0].channel ber 0
attr mutable ""
par Dynamic.Node:31.port$o[0].channel per 0
attr mutable ""
par Dynamic.Node:22.port$o[1].channel typename "\"ned.DatarateChannel\""
par Dynamic.Node:22.port$o[1].channel disabled false
attr mutable ""
par Dynamic.Node:22.port$o[1].channel delay 0.01s
attr mutable ""
attr unit s
par Dynamic.Node:22.port$o[1].channel datarate 1e+06bps
attr mutable ""
attr unit bps
par Dynamic.Node:22.port$o[1].channel ber 0
attr mutable ""
par Dynamic.Node:22.port$o[1].channel per 0
attr mutable ""
par Dynamic.Node:4.port$o[2].channel typename "\"ned.DatarateChannel\""
par Dynamic.Node:4.port$o[2].channel disabled false
attr mutable ""
par Dynamic.Node:4.port$o[2].channel delay 0.01s
attr mutable ""
attr unit s
par Dynamic.Node:4.port$o[2].channel datarate 1e+06bps
attr mutable ""
attr unit bps
par Dynamic.Node:4.port$o[2].channel ber 0
attr mutable ""
par Dynamic.Node:4.port$o[2].channel per 0
attr mutable ""
par Dynamic.Node:23.port$o[1].channel typename "\"ned.DatarateChannel\""
par Dynamic.Node:23.port$o[1].channel disabled false
attr mutable ""
par Dynamic.Node:23.port$o[1].channel delay 0.01s
attr mutable ""
attr unit s
par Dynamic.Node:23.port$o[1].channel datarate 1e+06bps
attr mutable ""
attr unit bps
par Dynamic.Node:23.port$o[1].channel ber 0
attr mutable ""
par Dynamic.Node:23.port$o[1].channel per 0
attr mutable ""
par Dynamic.Node:1.port$o[2].channel typename "\"ned.DatarateChannel\""
par Dynamic.Node:1.port$o[2].channel disabled false
attr mutable ""
par Dynamic.Node:1.port$o[2].channel delay 0.01s
attr mutable ""
attr unit s
par Dynamic.Node:1.port$o[2].channel datarate 1e+06bps
attr mutable ""
attr unit bps
par Dynamic.Node:1.port$o[2].channel ber 0
attr mutable ""
par Dynamic.Node:1.port$o[2].channel per 0
attr mutable ""
par Dynamic.Node:25.port$o[0].channel typename "\"ned.DatarateChannel\""
par Dynamic.Node:25.port$o[0].channel disabled false
attr mutable ""
par Dynamic.Node:25.port$o[0].channel delay 0.01s
attr mutable ""
attr unit s
par Dynamic.Node:25.port$o[0].channel datarate 1e+06bps
attr mutable ""
attr unit bps
par Dynamic.Node:25.port$o[0].channel ber 0
attr mutable ""
par Dynamic.Node:25.port$o[0].channel per 0
attr mutable ""
par Dynamic.Node:53.port$o[1].channel typename "\"ned.DatarateChannel\""
par Dynamic.Node:53.port$o[1].channel disabled false
attr mutable ""
par Dynamic.Node:53.port$o[1].channel delay 0.01s
attr mutable ""
attr unit s
par Dynamic.Node:53.port$o[1].channel datarate 1e+06bps
attr mutable ""
attr unit bps
par Dynamic.Node:53.port$o[1].channel ber 0
attr mutable ""
par Dynamic.Node:53.port$o[1].channel per 0
attr mutable ""
par Dynamic.Node:26.port$o[0].channel typename "\"ned.DatarateChannel\""
par Dynamic.Node:26.port$o[0].channel disabled false
attr mutable ""
par Dynamic.Node:26.port$o[0].channel delay 0.01s
attr mutable ""
attr unit s
par Dynamic.Node:26.port$o[0].channel datarate 1e+06bps
attr mutable ""
attr unit bps
par Dynamic.Node:26.port$o[0].channel ber 0
attr mutable ""
par Dynamic.Node:26.port$o[0].channel per 0
attr mutable ""
par Dynamic.Node:52.port$o[0].channel typename "\"ned.DatarateChannel\""
par Dynamic.Node:52.port$o[0].channel disabled false
attr mutable ""
par Dynamic.Node:52.port$o[0].channel delay 0.01s
attr mutable ""
attr unit s
par Dynamic.Node:52.port$o[0].channel datarate 1e+06bps
attr mutable ""
attr unit bps
par Dynamic.Node:52.port$o[0].channel ber 0
attr mutable ""
par Dynamic.Node:52.port$o[0].channel per 0
attr mutable ""
par Dynamic.Node:27.port$o[0].channel typename "\"ned.DatarateChannel\""
par Dynamic.Node:27.port$o[0].channel disabled false
attr mutable ""
par Dynamic.Node:27.port$o[0].channel delay 0.01s
attr mutable ""
attr unit s
par Dynamic.Node:27.port$o[0].channel datarate 1e+06bps
attr mutable ""
attr unit bps
par Dynamic.Node:27.port$o[0].channel ber 0
attr mutable ""
par Dynamic.Node:27.port$o[0].channel per 0
attr mutable ""
par Dynamic.Node:12.port$o[1].channel typename "\"ned.DatarateChannel\""
par Dynamic.Node:12.port$o[1].channel disabled false
attr mutable ""
par Dynamic.Node:12.port$o[1].channel delay 0.01s
attr mutable ""
attr unit s
par Dynamic.Node:12.port$o[1].channel datarate 1e+06bps
attr mutable ""
attr unit bps
par Dynamic.Node:12.port$o[1].channel ber 0
attr mutable ""
par Dynamic.Node:12.port$o[1].channel per 0
attr mutable ""
par Dynamic.Node:28.port$o[0].channel typename "\"ned.DatarateChannel\""
par Dynamic.Node:28.port$o[0].channel disabled false
attr mutable ""
par Dynamic.Node:28.port$o[0].channel delay 0.01s
attr mutable ""
attr unit s
par Dynamic.Node:28.port$o[0].channel datarate 1e+06bps
attr mutable ""
attr unit bps
par Dynamic.Node:28.port$o[0].channel ber 0
attr mutable ""
par Dynamic.Node:28.port$o[0].channel per 0
attr mutable ""
par Dynamic.Node:18.port$o[1].channel typename "\"ned.DatarateChannel\""
par Dynamic.Node:18.port$o[1].channel disabled false
attr mutable ""
par Dynamic.Node:18.port$o[1].channel delay 0.01s
attr mutable ""
attr unit s
par Dynamic.Node:18.port$o[1].channel datarate 1e+06bps
attr mutable ""
attr unit bps
par Dynamic.Node:18.port$o[1].channel ber 0
attr mutable ""
par Dynamic.Node:18.port$o[1].channel per 0
attr mutable ""
par Dynamic.Node:29.port$o[0].channel typename "\"ned.DatarateChannel\""
par Dynamic.Node:29.port$o[0].channel disabled false
attr mutable ""
par Dynamic.Node:29.port$o[0].channel delay 0.01s
attr mutable ""
attr unit s
par Dynamic.Node:29.port$o[0].channel datarate 1e+06bps
attr mutable ""
attr unit bps
par Dynamic.Node:29.port$o[0].channel ber 0
attr mutable ""
par Dynamic.Node:29.port$o[0].channel per 0
attr mutable ""
par Dynamic.Node:30.port$o[0].channel typename "\"ned.DatarateChannel\""
par Dynamic.Node:30.port$o[0].channel disabled false
attr mutable ""
par Dynamic.Node:30.port$o[0].channel delay 0.01s
attr mutable ""
attr unit s
par Dynamic.Node:30.port$o[0].channel datarate 1e+06bps
attr mutable ""
attr unit bps
par Dynamic.Node:30.port$o[0].channel ber 0
attr mutable ""
par Dynamic.Node:30.port$o[0].channel per 0
attr mutable ""
par Dynamic.Node:30.port$o[1].channel typename "\"ned.DatarateChannel\""
par Dynamic.Node:30.port$o[1].channel disabled false
attr mutable ""
par Dynamic.Node:30.port$o[1].channel delay 0.01s
attr mutable ""
attr unit s
par Dynamic.Node:30.port$o[1].channel datarate 1e+06bps
attr mutable ""
attr unit bps
par Dynamic.Node:30.port$o[1].channel ber 0
attr mutable ""
par Dynamic.Node:30.port$o[1].channel per 0
attr mutable ""
par Dynamic.Node:9.port$o[2].channel typename "\"ned.DatarateChannel\""
par Dynamic.Node:9.port$o[2].channel disabled false
attr mutable ""
par Dynamic.Node:9.port$o[2].channel delay 0.01s
attr mutable ""
attr unit s
par Dynamic.Node:9.port$o[2].channel datarate 1e+06bps
attr mutable ""
attr unit bps
par Dynamic.Node:9.port$o[2].channel ber 0
attr mutable ""
par Dynamic.Node:9.port$o[2].channel per 0
attr mutable ""
par Dynamic.Node:31.port$o[1].channel typename "\"ned.DatarateChannel\""
par Dynamic.Node:31.port$o[1].channel disabled false
attr mutable ""
par Dynamic.Node:31.port$o[1].channel delay 0.01s
attr mutable ""
attr unit s
par Dynamic.Node:31.port$o[1].channel datarate 1e+06bps
attr mutable ""
attr unit bps
par Dynamic.Node:31.port$o[1].channel ber 0
attr mutable ""
par Dynamic.Node:31.port$o[1].channel per 0
attr mutable ""
par Dynamic.Node:35.port$o[0].channel typename "\"ned.DatarateChannel\""
par Dynamic.Node:35.port$o[0].channel disabled false
attr mutable ""
par Dynamic.Node:35.port$o[0].channel delay 0.01s
attr mutable ""
attr unit s
par Dynamic.Node:35.port$o[0].channel datarate 1e+06bps
attr mutable ""
attr unit bps
par Dynamic.Node:35.port$o[0].channel ber 0
attr mutable ""
par Dynamic.Node:35.port$o[0].channel per 0
attr mutable ""
par Dynamic.Node:32.port$o[2].channel typename "\"ned.DatarateChannel\""
par Dynamic.Node:32.port$o[2].channel disabled false
attr mutable ""
par Dynamic.Node:32.port$o[2].channel delay 0.01s
attr mutable ""
attr unit s
par Dynamic.Node:32.port$o[2].channel datarate 1e+06bps
attr mutable ""
attr unit bps
par Dynamic.Node:32.port$o[2].channel ber 0
attr mutable ""
par Dynamic.Node:32.port$o[2].channel per 0
attr mutable ""
par Dynamic.Node:52.port$o[1].channel typename "\"ned.DatarateChannel\""
par Dynamic.Node:52.port$o[1].channel disabled false
attr mutable ""
par Dynamic.Node:52.port$o[1].channel delay 0.01s
attr mutable ""
attr unit s
par Dynamic.Node:52.port$o[1].channel datarate 1e+06bps
attr mutable ""
attr unit bps
par Dynamic.Node:52.port$o[1].channel ber 0
attr mutable ""
par Dynamic.Node:52.port$o[1].channel per 0
attr mutable ""
par Dynamic.Node:33.port$o[1].channel typename "\"ned.DatarateChannel\""
par Dynamic.Node:33.port$o[1].channel disabled false
attr mutable ""
par Dynamic.Node:33.port$o[1].channel delay 0.01s
attr mutable ""
attr unit s
par Dynamic.Node:33.port$o[1].channel datarate 1e+06bps
attr mutable ""
attr unit bps
par Dynamic.Node:33.port$o[1].channel ber 0
attr mutable ""
par Dynamic.Node:33.port$o[1].channel per 0
attr mutable ""
par Dynamic.Node:43.port$o[0].channel typename "\"ned.DatarateChannel\""
par Dynamic.Node:43.port$o[0].channel disabled false
attr mutable ""
par Dynamic.Node:43.port$o[0].channel delay 0.01s
attr mutable ""
attr unit s
par Dynamic.Node:43.port$o[0].channel datarate 1e+06bps
attr mutable ""
attr unit bps
par Dynamic.Node:43.port$o[0].channel ber 0
attr mutable ""
par Dynamic.Node:43.port$o[0].channel per 0
attr mutable ""
par Dynamic.Node:34.port$o[2].channel typename "\"ned.DatarateChannel\""
par Dynamic.Node:34.port$o[2].channel disabled false
attr mutable ""
par Dynamic.Node:34.port$o[2].channel delay 0.01s
attr mutable ""
attr unit s
par Dynamic.Node:34.port$o[2].channel datarate 1e+06bps
attr mutable ""
attr unit bps
par Dynamic.Node:34.port$o[2].channel ber 0
attr mutable ""
par Dynamic.Node:34.port$o[2].channel per 0
attr mutable ""
par Dynamic.Node:29.port$o[1].channel typename "\"ned.DatarateChannel\""
par Dynamic.Node:29.port$o[1].channel disabled false
attr mutable ""
par Dynamic.Node:29.port$o[1].channel delay 0.01s
attr mutable ""
attr unit s
par Dynamic.Node:29.port$o[1].channel datarate 1e+06bps
attr mutable ""
attr unit bps
par Dynamic.Node:29.port$o[1].channel ber 0
attr mutable ""
par Dynamic.Node:29.port$o[1].channel per 0
attr mutable ""
par Dynamic.Node:35.port$o[1].channel typename "\"ned.DatarateChannel\""
par Dynamic.Node:35.port$o[1].channel disabled false
attr mutable ""
par Dynamic.Node:35.port$o[1].channel delay 0.01s
attr mutable ""
attr unit s
par Dynamic.Node:35.port$o[1].channel datarate 1e+06bps
attr mutable ""
attr unit bps
par Dynamic.Node:35.port$o[1].channel ber 0
attr mutable ""
par Dynamic.Node:35.port$o[1].channel per 0
attr mutable ""
par Dynamic.Node:24.port$o[0].channel typename "\"ned.DatarateChannel\""
par Dynamic.Node:24.port$o[0].channel disabled false
attr mutable ""
par Dynamic.Node:24.port$o[0].channel delay 0.01s
attr mutable ""
attr unit s
par Dynamic.Node:24.port$o[0].channel datarate 1e+06bps
attr mutable ""
attr unit bps
par Dynamic.Node:24.port$o[0].channel ber 0
attr mutable ""
par Dynamic.Node:24.port$o[0].channel per 0
attr mutable ""
par Dynamic.Node:35.port$o[2].channel typename "\"ned.DatarateChannel\""
par Dynamic.Node:35.port$o[2].channel disabled false
attr mutable ""
par Dynamic.Node:35.port$o[2].channel delay 0.01s
attr mutable ""
attr unit s
par Dynamic.Node:35.port$o[2].channel datarate 1e+06bps
attr mutable ""
attr unit bps
par Dynamic.Node:35.port$o[2].channel ber 0
attr mutable ""
par Dynamic.Node:35.port$o[2].channel per 0
attr mutable ""
par Dynamic.Node:40.port$o[0].channel typename "\"ned.DatarateChannel\""
par Dynamic.Node:40.port$o[0].channel disabled false
attr mutable ""
par Dynamic.Node:40.port$o[0].channel delay 0.01s
attr mutable ""
attr unit s
par Dynamic.Node:40.port$o[0].channel datarate 1e+06bps
attr mutable ""
attr unit bps
par Dynamic.Node:40.port$o[0].channel ber 0
attr mutable ""
par Dynamic.Node:40.port$o[0].channel per 0
attr mutable ""
par Dynamic.Node:36.port$o[0].channel typename "\"ned.DatarateChannel\""
par Dynamic.Node:36.port$o[0].channel disabled false
attr mutable ""
par Dynamic.Node:36.port$o[0].channel delay 0.01s
attr mutable ""
attr unit s
par Dynamic.Node:36.port$o[0].channel datarate 1e+06bps
attr mutable ""
attr unit bps
par Dynamic.Node:36.port$o[0].channel ber 0
attr mutable ""
par Dynamic.Node:36.port$o[0].channel per 0
attr mutable ""
par Dynamic.Node:6.port$o[2].channel typename "\"ned.DatarateChannel\""
par Dynamic.Node:6.port$o[2].channel disabled false
attr mutable ""
par Dynamic.Node:6.port$o[2].channel delay 0.01s
attr mutable ""
attr unit s
par Dynamic.Node:6.port$o[2].channel datarate 1e+06bps
attr mutable ""
attr unit bps
par Dynamic.Node:6.port$o[2].channel ber 0
attr mutable ""
par Dynamic.Node:6.port$o[2].channel per 0
attr mutable ""
par Dynamic.Node:36.port$o[1].channel typename "\"ned.DatarateChannel\""
par Dynamic.Node:36.port$o[1].channel disabled false
attr mutable ""
par Dynamic.Node:36.port$o[1].channel delay 0.01s
attr mutable ""
attr unit s
par Dynamic.Node:36.port$o[1].channel datarate 1e+06bps
attr mutable ""
attr unit bps
par Dynamic.Node:36.port$o[1].channel ber 0
attr mutable ""
par Dynamic.Node:36.port$o[1].channel per 0
attr mutable ""
par Dynamic.Node:54.port$o[0].channel typename "\"ned.DatarateChannel\""
par Dynamic.Node:54.port$o[0].channel disabled false
attr mutable ""
par Dynamic.Node:54.port$o[0].channel delay 0.01s
attr mutable ""
attr unit s
par Dynamic.Node:54.port$o[0].channel datarate 1e+06bps
attr mutable ""
attr unit bps
par Dynamic.Node:54.port$o[0].channel ber 0
attr mutable ""
par Dynamic.Node:54.port$o[0].channel per 0
attr mutable ""
par Dynamic.Node:37.port$o[1].channel typename "\"ned.DatarateChannel\""
par Dynamic.Node:37.port$o[1].channel disabled false
attr mutable ""
par Dynamic.Node:37.port$o[1].channel delay 0.01s
attr mutable ""
attr unit s
par Dynamic.Node:37.port$o[1].channel datarate 1e+06bps
attr mutable ""
attr unit bps
par Dynamic.Node:37.port$o[1].channel ber 0
attr mutable ""
par Dynamic.Node:37.port$o[1].channel per 0
attr mutable ""
par Dynamic.Node:25.port$o[1].channel typename "\"ned.DatarateChannel\""
par Dynamic.Node:25.port$o[1].channel disabled false
attr mutable ""
par Dynamic.Node:25.port$o[1].channel delay 0.01s
attr mutable ""
attr unit s
par Dynamic.Node:25.port$o[1].channel datarate 1e+06bps
attr mutable ""
attr unit bps
par Dynamic.Node:25.port$o[1].channel ber 0
attr mutable ""
par Dynamic.Node:25.port$o[1].channel per 0
attr mutable ""
par Dynamic.Node:37.port$o[2].channel typename "\"ned.DatarateChannel\""
par Dynamic.Node:37.port$o[2].channel disabled false
attr mutable ""
par Dynamic.Node:37.port$o[2].channel delay 0.01s
attr mutable ""
attr unit s
par Dynamic.Node:37.port$o[2].channel datarate 1e+06bps
attr mutable ""
attr unit bps
par Dynamic.Node:37.port$o[2].channel ber 0
attr mutable ""
par Dynamic.Node:37.port$o[2].channel per 0
attr mutable ""
par Dynamic.Node:39.port$o[0].channel typename "\"ned.DatarateChannel\""
par Dynamic.Node:39.port$o[0].channel disabled false
attr mutable ""
par Dynamic.Node:39.port$o[0].channel delay 0.01s
attr mutable ""
attr unit s
par Dynamic.Node:39.port$o[0].channel datarate 1e+06bps
attr mutable ""
attr unit bps
par Dynamic.Node:39.port$o[0].channel ber 0
attr mutable ""
par Dynamic.Node:39.port$o[0].channel per 0
attr mutable ""
par Dynamic.Node:38.port$o[1].channel typename "\"ned.DatarateChannel\""
par Dynamic.Node:38.port$o[1].channel disabled false
attr mutable ""
par Dynamic.Node:38.port$o[1].channel delay 0.01s
attr mutable ""
attr unit s
par Dynamic.Node:38.port$o[1].channel datarate 1e+06bps
attr mutable ""
attr unit bps
par Dynamic.Node:38.port$o[1].channel ber 0
attr mutable ""
par Dynamic.Node:38.port$o[1].channel per 0
attr mutable ""
par Dynamic.Node:56.port$o[0].channel typename "\"ned.DatarateChannel\""
par Dynamic.Node:56.port$o[0].channel disabled false
attr mutable ""
par Dynamic.Node:56.port$o[0].channel delay 0.01s
attr mutable ""
attr unit s
par Dynamic.Node:56.port$o[0].channel datarate 1e+06bps
attr mutable ""
attr unit bps
par Dynamic.Node:56.port$o[0].channel ber 0
attr mutable ""
par Dynamic.Node:56.port$o[0].channel per 0
attr mutable ""
par Dynamic.Node:39.port$o[1].channel typename "\"ned.DatarateChannel\""
par Dynamic.Node:39.port$o[1].channel disabled false
attr mutable ""
par Dynamic.Node:39.port$o[1].channel delay 0.01s
attr mutable ""
attr unit s
par Dynamic.Node:39.port$o[1].channel datarate 1e+06bps
attr mutable ""
attr unit bps
par Dynamic.Node:39.port$o[1].channel ber 0
attr mutable ""
par Dynamic.Node:39.port$o[1].channel per 0
attr mutable ""
par Dynamic.Node:8.port$o[3].channel typename "\"ned.DatarateChannel\""
par Dynamic.Node:8.port$o[3].channel disabled false
attr mutable ""
par Dynamic.Node:8.port$o[3].channel delay 0.01s
attr mutable ""
attr unit s
par Dynamic.Node:8.port$o[3].channel datarate 1e+06bps
attr mutable ""
attr unit bps
par Dynamic.Node:8.port$o[3].channel ber 0
attr mutable ""
par Dynamic.Node:8.port$o[3].channel per 0
attr mutable ""
par Dynamic.Node:41.port$o[0].channel typename "\"ned.DatarateChannel\""
par Dynamic.Node:41.port$o[0].channel disabled false
attr mutable ""
par Dynamic.Node:41.port$o[0].channel delay 0.01s
attr mutable ""
attr unit s
par Dynamic.Node:41.port$o[0].channel datarate 1e+06bps
attr mutable ""
attr unit bps
par Dynamic.Node:41.port$o[0].channel ber 0
attr mutable ""
par Dynamic.Node:41.port$o[0].channel per 0
attr mutable ""
par Dynamic.Node:5.port$o[2].channel typename "\"ned.DatarateChannel\""
par Dynamic.Node:5.port$o[2].channel disabled false
attr mutable ""
par Dynamic.Node:5.port$o[2].channel delay 0.01s
attr mutable ""
attr unit s
par Dynamic.Node:5.port$o[2].channel datarate 1e+06bps
attr mutable ""
attr unit bps
par Dynamic.Node:5.port$o[2].channel ber 0
attr mutable ""
par Dynamic.Node:5.port$o[2].channel per 0
attr mutable ""
par Dynamic.Node:41.port$o[1].channel typename "\"ned.DatarateChannel\""
par Dynamic.Node:41.port$o[1].channel disabled false
attr mutable ""
par Dynamic.Node:41.port$o[1].channel delay 0.01s
attr mutable ""
attr unit s
par Dynamic.Node:41.port$o[1].channel datarate 1e+06bps
attr mutable ""
attr unit bps
par Dynamic.Node:41.port$o[1].channel ber 0
attr mutable ""
par Dynamic.Node:41.port$o[1].channel per 0
attr mutable ""
par Dynamic.Node:45.port$o[0].channel typename "\"ned.DatarateChannel\""
par Dynamic.Node:45.port$o[0].channel disabled false
attr mutable ""
par Dynamic.Node:45.port$o[0].channel delay 0.01s
attr mutable ""
attr unit s
par Dynamic.Node:45.port$o[0].channel datarate 1e+06bps
attr mutable ""
attr unit bps
par Dynamic.Node:45.port$o[0].channel ber 0
attr mutable ""
par Dynamic.Node:45.port$o[0].channel per 0
attr mutable ""
par Dynamic.Node:42.port$o[1].channel typename "\"ned.DatarateChannel\""
par Dynamic.Node:42.port$o[1].channel disabled false
attr mutable ""
par Dynamic.Node:42.port$o[1].channel delay 0.01s
attr mutable ""
attr unit s
par Dynamic.Node:42.port$o[1].channel datarate 1e+06bps
attr mutable ""
attr unit bps
par Dynamic.Node:42.port$o[1].channel ber 0
attr mutable ""
par Dynamic.Node:42.port$o[1].channel per 0
attr mutable ""
par Dynamic.Node:45.port$o[1].channel typename "\"ned.DatarateChannel\""
par Dynamic.Node:45.port$o[1].channel disabled false
attr mutable ""
par Dynamic.Node:45.port$o[1].channel delay 0.01s
attr mutable ""
attr unit s
par Dynamic.Node:45.port$o[1].channel datarate 1e+06bps
attr mutable ""
attr unit bps
par Dynamic.Node:45.port$o[1].channel ber 0
attr mutable ""
par Dynamic.Node:45.port$o[1].channel per 0
attr mutable ""
par Dynamic.Node:43.port$o[1].channel typename "\"ned.DatarateChannel\""
par Dynamic.Node:43.port$o[1].channel disabled false
attr mutable ""
par Dynamic.Node:43.port$o[1].channel delay 0.01s
attr mutable ""
attr unit s
par Dynamic.Node:43.port$o[1].channel datarate 1e+06bps
attr mutable ""
attr unit bps
par Dynamic.Node:43.port$o[1].channel ber 0
attr mutable ""
par Dynamic.Node:43.port$o[1].channel per 0
attr mutable ""
par Dynamic.Node:52.port$o[2].channel typename "\"ned.DatarateChannel\""
par Dynamic.Node:52.port$o[2].channel disabled false
attr mutable ""
par Dynamic.Node:52.port$o[2].channel delay 0.01s
attr mutable ""
attr unit s
par Dynamic.Node:52.port$o[2].channel datarate 1e+06bps
attr mutable ""
attr unit bps
par Dynamic.Node:52.port$o[2].channel ber 0
attr mutable ""
par Dynamic.Node:52.port$o[2].channel per 0
attr mutable ""
par Dynamic.Node:44.port$o[1].channel typename "\"ned.DatarateChannel\""
par Dynamic.Node:44.port$o[1].channel disabled false
attr mutable ""
par Dynamic.Node:44.port$o[1].channel delay 0.01s
attr mutable ""
attr unit s
par Dynamic.Node:44.port$o[1].channel datarate 1e+06bps
attr mutable ""
attr unit bps
par Dynamic.Node:44.port$o[1].channel ber 0
attr mutable ""
par Dynamic.Node:44.port$o[1].channel per 0
attr mutable ""
par Dynamic.Node:34.port$o[3].channel typename "\"ned.DatarateChannel\""
par Dynamic.Node:34.port$o[3].channel disabled false
attr mutable ""
par Dynamic.Node:34.port$o[3].channel delay 0.01s
attr mutable ""
attr unit s
par Dynamic.Node:34.port$o[3].channel datarate 1e+06bps
attr mutable ""
attr unit bps
par Dynamic.Node:34.port$o[3].channel ber 0
attr mutable ""
par Dynamic.Node:34.port$o[3].channel per 0
attr mutable ""
par Dynamic.Node:45.port$o[2].channel typename "\"ned.DatarateChannel\""
par Dynamic.Node:45.port$o[2].channel disabled false
attr mutable ""
par Dynamic.Node:45.port$o[2].channel delay 0.01s
attr mutable ""
attr unit s
par Dynamic.Node:45.port$o[2].channel datarate 1e+06bps
attr mutable ""
attr unit bps
par Dynamic.Node:45.port$o[2].channel ber 0
attr mutable ""
par Dynamic.Node:45.port$o[2].channel per 0
attr mutable ""
par Dynamic.Node:49.port$o[0].channel typename "\"ned.DatarateChannel\""
par Dynamic.Node:49.port$o[0].channel disabled false
attr mutable ""
par Dynamic.Node:49.port$o[0].channel delay 0.01s
attr mutable ""
attr unit s
par Dynamic.Node:49.port$o[0].channel datarate 1e+06bps
attr mutable ""
attr unit bps
par Dynamic.Node:49.port$o[0].channel ber 0
attr mutable ""
par Dynamic.Node:49.port$o[0].channel per 0
attr mutable ""
par Dynamic.Node:46.port$o[0].channel typename "\"ned.DatarateChannel\""
par Dynamic.Node:46.port$o[0].channel disabled false
attr mutable ""
par Dynamic.Node:46.port$o[0].channel delay 0.01s
attr mutable ""
attr unit s
par Dynamic.Node:46.port$o[0].channel datarate 1e+06bps
attr mutable ""
attr unit bps
par Dynamic.Node:46.port$o[0].channel ber 0
attr mutable ""
par Dynamic.Node:46.port$o[0].channel per 0
attr mutable ""
par Dynamic.Node:3.port$o[1].channel typename "\"ned.DatarateChannel\""
par Dynamic.Node:3.port$o[1].channel disabled false
attr mutable ""
par Dynamic.Node:3.port$o[1].channel delay 0.01s
attr mutable ""
attr unit s
par Dynamic.Node:3.port$o[1].channel datarate 1e+06bps
attr mutable ""
attr unit bps
par Dynamic.Node:3.port$o[1].channel ber 0
attr mutable ""
par Dynamic.Node:3.port$o[1].channel per 0
attr mutable ""
par Dynamic.Node:46.port$o[1].channel typename "\"ned.DatarateChannel\""
par Dynamic.Node:46.port$o[1].channel disabled false
attr mutable ""
par Dynamic.Node:46.port$o[1].channel delay 0.01s
attr mutable ""
attr unit s
par Dynamic.Node:46.port$o[1].channel datarate 1e+06bps
attr mutable ""
attr unit bps
par Dynamic.Node:46.port$o[1].channel ber 0
attr mutable ""
par Dynamic.Node:46.port$o[1].channel per 0
attr mutable ""
par Dynamic.Node:49.port$o[1].channel typename "\"ned.DatarateChannel\""
par Dynamic.Node:49.port$o[1].channel disabled false
attr mutable ""
par Dynamic.Node:49.port$o[1].channel delay 0.01s
attr mutable ""
attr unit s
par Dynamic.Node:49.port$o[1].channel datarate 1e+06bps
attr mutable ""
attr unit bps
par Dynamic.Node:49.port$o[1].channel ber 0
attr mutable ""
par Dynamic.Node:49.port$o[1].channel per 0
attr mutable ""
par Dynamic.Node:47.port$o[0].channel typename "\"ned.DatarateChannel\""
par Dynamic.Node:47.port$o[0].channel disabled false
attr mutable ""
par Dynamic.Node:47.port$o[0].channel delay 0.01s
attr mutable ""
attr unit s
par Dynamic.Node:47.port$o[0].channel datarate 1e+06bps
attr mutable ""
attr unit bps
par Dynamic.Node:47.port$o[0].channel ber 0
attr mutable ""
par Dynamic.Node:47.port$o[0].channel per 0
attr mutable ""
par Dynamic.Node:27.port$o[1].channel typename "\"ned.DatarateChannel\""
par Dynamic.Node:27.port$o[1].channel disabled false
attr mutable ""
par Dynamic.Node:27.port$o[1].channel delay 0.01s
attr mutable ""
attr unit s
par Dynamic.Node:27.port$o[1].channel datarate 1e+06bps
attr mutable ""
attr unit bps
par Dynamic.Node:27.port$o[1].channel ber 0
attr mutable ""
par Dynamic.Node:27.port$o[1].channel per 0
attr mutable ""
par Dynamic.Node:48.port$o[2].channel typename "\"ned.DatarateChannel\""
par Dynamic.Node:48.port$o[2].channel disabled false
attr mutable ""
par Dynamic.Node:48.port$o[2].channel delay 0.01s
attr mutable ""
attr unit s
par Dynamic.Node:48.port$o[2].channel datarate 1e+06bps
attr mutable ""
attr unit bps
par Dynamic.Node:48.port$o[2].channel ber 0
attr mutable ""
par Dynamic.Node:48.port$o[2].channel per 0
attr mutable ""
par Dynamic.Node:18.port$o[2].channel typename "\"ned.DatarateChannel\""
par Dynamic.Node:18.port$o[2].channel disabled false
attr mutable ""
par Dynamic.Node:18.port$o[2].channel delay 0.01s
attr mutable ""
attr unit s
par Dynamic.Node:18.port$o[2].channel datarate 1e+06bps
attr mutable ""
attr unit bps
par Dynamic.Node:18.port$o[2].channel ber 0
attr mutable ""
par Dynamic.Node:18.port$o[2].channel per 0
attr mutable ""
par Dynamic.Node:49.port$o[2].channel typename "\"ned.DatarateChannel\""
par Dynamic.Node:49.port$o[2].channel disabled false
attr mutable ""
par Dynamic.Node:49.port$o[2].channel delay 0.01s
attr mutable ""
attr unit s
par Dynamic.Node:49.port$o[2].channel datarate 1e+06bps
attr mutable ""
attr unit bps
par Dynamic.Node:49.port$o[2].channel ber 0
attr mutable ""
par Dynamic.Node:49.port$o[2].channel per 0
attr mutable ""
par Dynamic.Node:42.port$o[2].channel typename "\"ned.DatarateChannel\""
par Dynamic.Node:42.port$o[2].channel disabled false
attr mutable ""
par Dynamic.Node:42.port$o[2].channel delay 0.01s
attr mutable ""
attr unit s
par Dynamic.Node:42.port$o[2].channel datarate 1e+06bps
attr mutable ""
attr unit bps
par Dynamic.Node:42.port$o[2].channel ber 0
attr mutable ""
par Dynamic.Node:42.port$o[2].channel per 0
attr mutable ""
par Dynamic.Node:50.port$o[1].channel typename "\"ned.DatarateChannel\""
par Dynamic.Node:50.port$o[1].channel disabled false
attr mutable ""
par Dynamic.Node:50.port$o[1].channel delay 0.01s
attr mutable ""
attr unit s
par Dynamic.Node:50.port$o[1].channel datarate 1e+06bps
attr mutable ""
attr unit bps
par Dynamic.Node:50.port$o[1].channel ber 0
attr mutable ""
par Dynamic.Node:50.port$o[1].channel per 0
attr mutable ""
par Dynamic.Node:45.port$o[3].channel typename "\"ned.DatarateChannel\""
par Dynamic.Node:45.port$o[3].channel disabled false
attr mutable ""
par Dynamic.Node:45.port$o[3].channel delay 0.01s
attr mutable ""
attr unit s
par Dynamic.Node:45.port$o[3].channel datarate 1e+06bps
attr mutable ""
attr unit bps
par Dynamic.Node:45.port$o[3].channel ber 0
attr mutable ""
par Dynamic.Node:45.port$o[3].channel per 0
attr mutable ""
par Dynamic.Node:51.port$o[0].channel typename "\"ned.DatarateChannel\""
par Dynamic.Node:51.port$o[0].channel disabled false
attr mutable ""
par Dynamic.Node:51.port$o[0].channel delay 0.01s
attr mutable ""
attr unit s
par Dynamic.Node:51.port$o[0].channel datarate 1e+06bps
attr mutable ""
attr unit bps
par Dynamic.Node:51.port$o[0].channel ber 0
attr mutable ""
par Dynamic.Node:51.port$o[0].channel per 0
attr mutable ""
par Dynamic.Node:26.port$o[1].channel typename "\"ned.DatarateChannel\""
par Dynamic.Node:26.port$o[1].channel disabled false
attr mutable ""
par Dynamic.Node:26.port$o[1].channel delay 0.01s
attr mutable ""
attr unit s
par Dynamic.Node:26.port$o[1].channel datarate 1e+06bps
attr mutable ""
attr unit bps
par Dynamic.Node:26.port$o[1].channel ber 0
attr mutable ""
par Dynamic.Node:26.port$o[1].channel per 0
attr mutable ""
par Dynamic.Node:52.port$o[3].channel typename "\"ned.DatarateChannel\""
par Dynamic.Node:52.port$o[3].channel disabled false
attr mutable ""
par Dynamic.Node:52.port$o[3].channel delay 0.01s
attr mutable ""
attr unit s
par Dynamic.Node:52.port$o[3].channel datarate 1e+06bps
attr mutable ""
attr unit bps
par Dynamic.Node:52.port$o[3].channel ber 0
attr mutable ""
par Dynamic.Node:52.port$o[3].channel per 0
attr mutable ""
par Dynamic.Node:43.port$o[2].channel typename "\"ned.DatarateChannel\""
par Dynamic.Node:43.port$o[2].channel disabled false
attr mutable ""
par Dynamic.Node:43.port$o[2].channel delay 0.01s
attr mutable ""
attr unit s
par Dynamic.Node:43.port$o[2].channel datarate 1e+06bps
attr mutable ""
attr unit bps
par Dynamic.Node:43.port$o[2].channel ber 0
attr mutable ""
par Dynamic.Node:43.port$o[2].channel per 0
attr mutable ""
par Dynamic.Node:53.port$o[2].channel typename "\"ned.DatarateChannel\""
par Dynamic.Node:53.port$o[2].channel disabled false
attr mutable ""
par Dynamic.Node:53.port$o[2].channel delay 0.01s
attr mutable ""
attr unit s
par Dynamic.Node:53.port$o[2].channel datarate 1e+06bps
attr mutable ""
attr unit bps
par Dynamic.Node:53.port$o[2].channel ber 0
attr mutable ""
par Dynamic.Node:53.port$o[2].channel per 0
attr mutable ""
par Dynamic.Node:18.port$o[3].channel typename "\"ned.DatarateChannel\""
par Dynamic.Node:18.port$o[3].channel disabled false
attr mutable ""
par Dynamic.Node:18.port$o[3].channel delay 0.01s
attr mutable ""
attr unit s
par Dynamic.Node:18.port$o[3].channel datarate 1e+06bps
attr mutable ""
attr unit bps
par Dynamic.Node:18.port$o[3].channel ber 0
attr mutable ""
par Dynamic.Node:18.port$o[3].channel per 0
attr mutable ""
par Dynamic.Node:53.port$o[3].channel typename "\"ned.DatarateChannel\""
par Dynamic.Node:53.port$o[3].channel disabled false
attr mutable ""
par Dynamic.Node:53.port$o[3].channel delay 0.01s
attr mutable ""
attr unit s
par Dynamic.Node:53.port$o[3].channel datarate 1e+06bps
attr mutable ""
attr unit bps
par Dynamic.Node:53.port$o[3].channel ber 0
attr mutable ""
par Dynamic.Node:53.port$o[3].channel per 0
attr mutable ""
par Dynamic.Node:31.port$o[2].channel typename "\"ned.DatarateChannel\""
par Dynamic.Node:31.port$o[2].channel disabled false
attr mutable ""
par Dynamic.Node:31.port$o[2].channel delay 0.01s
attr mutable ""
attr unit s
par Dynamic.Node:31.port$o[2].channel datarate 1e+06bps
attr mutable ""
attr unit bps
par Dynamic.Node:31.port$o[2].channel ber 0
attr mutable ""
par Dynamic.Node:31.port$o[2].channel per 0
attr mutable ""
par Dynamic.Node:54.port$o[1].channel typename "\"ned.DatarateChannel\""
par Dynamic.Node:54.port$o[1].channel disabled false
attr mutable ""
par Dynamic.Node:54.port$o[1].channel delay 0.01s
attr mutable ""
attr unit s
par Dynamic.Node:54.port$o[1].channel datarate 1e+06bps
attr mutable ""
attr unit bps
par Dynamic.Node:54.port$o[1].channel ber 0
attr mutable ""
par Dynamic.Node:54.port$o[1].channel per 0
attr mutable ""
par Dynamic.Node:51.port$o[1].channel typename "\"ned.DatarateChannel\""
par Dynamic.Node:51.port$o[1].channel disabled false
attr mutable ""
par Dynamic.Node:51.port$o[1].channel delay 0.01s
attr mutable ""
attr unit s
par Dynamic.Node:51.port$o[1].channel datarate 1e+06bps
attr mutable ""
attr unit bps
par Dynamic.Node:51.port$o[1].channel ber 0
attr mutable ""
par Dynamic.Node:51.port$o[1].channel per 0
attr mutable ""
par Dynamic.Node:54.port$o[2].channel typename "\"ned.DatarateChannel\""
par Dynamic.Node:54.port$o[2].channel disabled false
attr mutable ""
par Dynamic.Node:54.port$o[2].channel delay 0.01s
attr mutable ""
attr unit s
par Dynamic.Node:54.port$o[2].channel datarate 1e+06bps
attr mutable ""
attr unit bps
par Dynamic.Node:54.port$o[2].channel ber 0
attr mutable ""
par Dynamic.Node:54.port$o[2].channel per 0
attr mutable ""
par Dynamic.Node:26.port$o[2].channel typename "\"ned.DatarateChannel\""
par Dynamic.Node:26.port$o[2].channel disabled false
attr mutable ""
par Dynamic.Node:26.port$o[2].channel delay 0.01s
attr mutable ""
attr unit s
par Dynamic.Node:26.port$o[2].channel datarate 1e+06bps
attr mutable ""
attr unit bps
par Dynamic.Node:26.port$o[2].channel ber 0
attr mutable ""
par Dynamic.Node:26.port$o[2].channel per 0
attr mutable ""
par Dynamic.Node:55.port$o[0].channel typename "\"ned.DatarateChannel\""
par Dynamic.Node:55.port$o[0].channel disabled false
attr mutable ""
par Dynamic.Node:55.port$o[0].channel delay 0.01s
attr mutable ""
attr unit s
par Dynamic.Node:55.port$o[0].channel datarate 1e+06bps
attr mutable ""
attr unit bps
par Dynamic.Node:55.port$o[0].channel ber 0
attr mutable ""
par Dynamic.Node:55.port$o[0].channel per 0
attr mutable ""
par Dynamic.Node:20.port$o[3].channel typename "\"ned.DatarateChannel\""
par Dynamic.Node:20.port$o[3].channel disabled false
attr mutable ""
par Dynamic.Node:20.port$o[3].channel delay 0.01s
attr mutable ""
attr unit s
par Dynamic.Node:20.port$o[3].channel datarate 1e+06bps
attr mutable ""
attr unit bps
par Dynamic.Node:20.port$o[3].channel ber 0
attr mutable ""
par Dynamic.Node:20.port$o[3].channel per 0
attr mutable ""
par Dynamic.Node:56.port$o[1].channel typename "\"ned.DatarateChannel\""
par Dynamic.Node:56.port$o[1].channel disabled false
attr mutable ""
par Dynamic.Node:56.port$o[1].channel delay 0.01s
attr mutable ""
attr unit s
par Dynamic.Node:56.port$o[1].channel datarate 1e+06bps
attr mutable ""
attr unit bps
par Dynamic.Node:56.port$o[1].channel ber 0
attr mutable ""
par Dynamic.Node:56.port$o[1].channel per 0
attr mutable ""
par Dynamic.Node:16.port$o[2].channel typename "\"ned.DatarateChannel\""
par Dynamic.Node:16.port$o[2].channel disabled false
attr mutable ""
par Dynamic.Node:16.port$o[2].channel delay 0.01s
attr mutable ""
attr unit s
par Dynamic.Node:16.port$o[2].channel datarate 1e+06bps
attr mutable ""
attr unit bps
par Dynamic.Node:16.port$o[2].channel ber 0
attr mutable ""
par Dynamic.Node:16.port$o[2].channel per 0
attr mutable ""
par Dynamic.builder typename "\"builder.NetBuilder\""
par Dynamic.builder nodesFile "\"networks/nodes.txt\""
par Dynamic.builder connectionsFile "\"networks/connections.txt\""
par Dynamic.Node:1.app typename "\"node.App\""
par Dynamic.Node:1.app address 1
par Dynamic.Node:1.app destAddresses "\"1 50\""
par Dynamic.Node:1.app sendIaTime exponential(1s)
attr unit s
par Dynamic.Node:1.app packetLength 4096byte
attr unit byte
scalar Dynamic.Node:1.app hopCount:mean 6
attr interpolationmode none
attr recordingmode mean
attr title "hop count of arrived packets, mean"
scalar Dynamic.Node:1.app hopCount:max 6
attr interpolationmode none
attr recordingmode max
attr title "hop count of arrived packets, max"
scalar Dynamic.Node:1.app endToEndDelay:mean 0.256608
attr interpolationmode none
attr recordingmode mean
attr title "end-to-end delay of arrived packets, mean"
attr unit s
scalar Dynamic.Node:1.app endToEndDelay:max 0.256608
attr interpolationmode none
attr recordingmode max
attr title "end-to-end delay of arrived packets, max"
attr unit s
par Dynamic.Node:1.routing typename "\"node.Routing\""
statistic Dynamic.Node:1.routing outputIf:histogram
field count 1
field mean -1
field stddev -nan
field min -1
field max -1
field sum -1
field sqrsum 1
attr interpolationmode none
attr recordingmode histogram
attr title "output interface for each routed packet"
bin	-inf	0
bin	-2	0
bin	-1	1
bin	0	0
scalar Dynamic.Node:1.routing drop:count 0
attr interpolationmode none
attr recordingmode count
attr title "dropped packet byte length, count"
attr unit bytes
scalar Dynamic.Node:1.routing drop:sum 0
attr interpolationmode none
attr recordingmode sum
attr title "dropped packet byte length, sum"
attr unit bytes
par Dynamic.Node:1.queue[0] typename "\"node.L2Queue\""
par Dynamic.Node:1.queue[0] frameCapacity 0
par Dynamic.Node:1.queue[0] useCutThroughSwitching false
scalar Dynamic.Node:1.queue[0] rxBytes:count 1
attr interpolationmode none
attr recordingmode count
attr title "received packet byte length, count"
attr unit bytes
scalar Dynamic.Node:1.queue[0] rxBytes:sum 4096
attr interpolationmode none
attr recordingmode sum
attr title "received packet byte length, sum"
attr unit bytes
statistic Dynamic.Node:1.queue[0] rxBytes:histogram
field count 1
field mean 4096
field stddev -nan
field min 4096
field max 4096
field sum 4096
field sqrsum 16777216
attr interpolationmode none
attr recordingmode histogram
attr title "received packet byte length"
attr unit bytes
bin	-inf	0
bin	4095	0
bin	4096	1
bin	4097	0
scalar Dynamic.Node:1.queue[0] txBytes:count 0
attr interpolationmode none
attr recordingmode count
attr title "transmitting packet byte length, count"
attr unit bytes
scalar Dynamic.Node:1.queue[0] txBytes:sum 0
attr interpolationmode none
attr recordingmode sum
attr title "transmitting packet byte length, sum"
attr unit bytes
statistic Dynamic.Node:1.queue[0] txBytes:histogram
field count 0
field mean -nan
field stddev -nan
field min -nan
field max -nan
field sum 0
field sqrsum 0
attr interpolationmode none
attr recordingmode histogram
attr title "transmitting packet byte length"
attr unit bytes
bin	-inf	0
bin	0	0
bin	1	0
scalar Dynamic.Node:1.queue[0] busy:timeavg 0
attr interpolationmode sample-hold
attr recordingmode timeavg
attr title "server busy state, timeavg"
scalar Dynamic.Node:1.queue[0] qlen:timeavg 0
attr interpolationmode sample-hold
attr recordingmode timeavg
attr title "queue length, timeavg"
scalar Dynamic.Node:1.queue[0] qlen:max 0
attr interpolationmode sample-hold
attr recordingmode max
attr title "queue length, max"
scalar Dynamic.Node:1.queue[0] drop:count 0
attr interpolationmode none
attr recordingmode count
attr title "dropped packet byte length, count"
attr unit bytes
scalar Dynamic.Node:1.queue[0] drop:sum 0
attr interpolationmode none
attr recordingmode sum
attr title "dropped packet byte length, sum"
attr unit bytes
par Dynamic.Node:1.queue[1] typename "\"node.L2Queue\""
par Dynamic.Node:1.queue[1] frameCapacity 0
par Dynamic.Node:1.queue[1] useCutThroughSwitching false
scalar Dynamic.Node:1.queue[1] rxBytes:count 0
attr interpolationmode none
attr recordingmode count
attr title "received packet byte length, count"
attr unit bytes
scalar Dynamic.Node:1.queue[1] rxBytes:sum 0
attr interpolationmode none
attr recordingmode sum
attr title "received packet byte length, sum"
attr unit bytes
statistic Dynamic.Node:1.queue[1] rxBytes:histogram
field count 0
field mean -nan
field stddev -nan
field min -nan
field max -nan
field sum 0
field sqrsum 0
attr interpolationmode none
attr recordingmode histogram
attr title "received packet byte length"
attr unit bytes
bin	-inf	0
bin	0	0
bin	1	0
scalar Dynamic.Node:1.queue[1] txBytes:count 0
attr interpolationmode none
attr recordingmode count
attr title "transmitting packet byte length, count"
attr unit bytes
scalar Dynamic.Node:1.queue[1] txBytes:sum 0
attr interpolationmode none
attr recordingmode sum
attr title "transmitting packet byte length, sum"
attr unit bytes
statistic Dynamic.Node:1.queue[1] txBytes:histogram
field count 0
field mean -nan
field stddev -nan
field min -nan
field max -nan
field sum 0
field sqrsum 0
attr interpolationmode none
attr recordingmode histogram
attr title "transmitting packet byte length"
attr unit bytes
bin	-inf	0
bin	0	0
bin	1	0
scalar Dynamic.Node:1.queue[1] busy:timeavg 0
attr interpolationmode sample-hold
attr recordingmode timeavg
attr title "server busy state, timeavg"
scalar Dynamic.Node:1.queue[1] qlen:timeavg 0
attr interpolationmode sample-hold
attr recordingmode timeavg
attr title "queue length, timeavg"
scalar Dynamic.Node:1.queue[1] qlen:max 0
attr interpolationmode sample-hold
attr recordingmode max
attr title "queue length, max"
scalar Dynamic.Node:1.queue[1] drop:count 0
attr interpolationmode none
attr recordingmode count
attr title "dropped packet byte length, count"
attr unit bytes
scalar Dynamic.Node:1.queue[1] drop:sum 0
attr interpolationmode none
attr recordingmode sum
attr title "dropped packet byte length, sum"
attr unit bytes
par Dynamic.Node:1.queue[2] typename "\"node.L2Queue\""
par Dynamic.Node:1.queue[2] frameCapacity 0
par Dynamic.Node:1.queue[2] useCutThroughSwitching false
scalar Dynamic.Node:1.queue[2] rxBytes:count 0
attr interpolationmode none
attr recordingmode count
attr title "received packet byte length, count"
attr unit bytes
scalar Dynamic.Node:1.queue[2] rxBytes:sum 0
attr interpolationmode none
attr recordingmode sum
attr title "received packet byte length, sum"
attr unit bytes
statistic Dynamic.Node:1.queue[2] rxBytes:histogram
field count 0
field mean -nan
field stddev -nan
field min -nan
field max -nan
field sum 0
field sqrsum 0
attr interpolationmode none
attr recordingmode histogram
attr title "received packet byte length"
attr unit bytes
bin	-inf	0
bin	0	0
bin	1	0
scalar Dynamic.Node:1.queue[2] txBytes:count 0
attr interpolationmode none
attr recordingmode count
attr title "transmitting packet byte length, count"
attr unit bytes
scalar Dynamic.Node:1.queue[2] txBytes:sum 0
attr interpolationmode none
attr recordingmode sum
attr title "transmitting packet byte length, sum"
attr unit bytes
statistic Dynamic.Node:1.queue[2] txBytes:histogram
field count 0
field mean -nan
field stddev -nan
field min -nan
field max -nan
field sum 0
field sqrsum 0
attr interpolationmode none
attr recordingmode histogram
attr title "transmitting packet byte length"
attr unit bytes
bin	-inf	0
bin	0	0
bin	1	0
scalar Dynamic.Node:1.queue[2] busy:timeavg 0
attr interpolationmode sample-hold
attr recordingmode timeavg
attr title "server busy state, timeavg"
scalar Dynamic.Node:1.queue[2] qlen:timeavg 0
attr interpolationmode sample-hold
attr recordingmode timeavg
attr title "queue length, timeavg"
scalar Dynamic.Node:1.queue[2] qlen:max 0
attr interpolationmode sample-hold
attr recordingmode max
attr title "queue length, max"
scalar Dynamic.Node:1.queue[2] drop:count 0
attr interpolationmode none
attr recordingmode count
attr title "dropped packet byte length, count"
attr unit bytes
scalar Dynamic.Node:1.queue[2] drop:sum 0
attr interpolationmode none
attr recordingmode sum
attr title "dropped packet byte length, sum"
attr unit bytes
par Dynamic.Node:1 typename "\"node.Node\""
par Dynamic.Node:1 address 1
par Dynamic.Node:1 appType "\"App\""
par Dynamic.Node:2.app typename "\"node.App\""
par Dynamic.Node:2.app address 2
par Dynamic.Node:2.app destAddresses "\"1 50\""
par Dynamic.Node:2.app sendIaTime exponential(1s)
attr unit s
par Dynamic.Node:2.app packetLength 4096byte
attr unit byte
scalar Dynamic.Node:2.app hopCount:mean 8
attr interpolationmode none
attr recordingmode mean
attr title "hop count of arrived packets, mean"
scalar Dynamic.Node:2.app hopCount:max 8
attr interpolationmode none
attr recordingmode max
attr title "hop count of arrived packets, max"
scalar Dynamic.Node:2.app endToEndDelay:mean 0.342144
attr interpolationmode none
attr recordingmode mean
attr title "end-to-end delay of arrived packets, mean"
attr unit s
scalar Dynamic.Node:2.app endToEndDelay:max 0.342144
attr interpolationmode none
attr recordingmode max
attr title "end-to-end delay of arrived packets, max"
attr unit s
par Dynamic.Node:2.routing typename "\"node.Routing\""
statistic Dynamic.Node:2.routing outputIf:histogram
field count 1
field mean -1
field stddev -nan
field min -1
field max -1
field sum -1
field sqrsum 1
attr interpolationmode none
attr recordingmode histogram
attr title "output interface for each routed packet"
bin	-inf	0
bin	-2	0
bin	-1	1
bin	0	0
scalar Dynamic.Node:2.routing drop:count 0
attr interpolationmode none
attr recordingmode count
attr title "dropped packet byte length, count"
attr unit bytes
scalar Dynamic.Node:2.routing drop:sum 0
attr interpolationmode none
attr recordingmode sum
attr title "dropped packet byte length, sum"
attr unit bytes
par Dynamic.Node:2.queue[0] typename "\"node.L2Queue\""
par Dynamic.Node:2.queue[0] frameCapacity 0
par Dynamic.Node:2.queue[0] useCutThroughSwitching false
scalar Dynamic.Node:2.queue[0] rxBytes:count 1
attr interpolationmode none
attr recordingmode count
attr title "received packet byte length, count"
attr unit bytes
scalar Dynamic.Node:2.queue[0] rxBytes:sum 4096
attr interpolationmode none
attr recordingmode sum
attr title "received packet byte length, sum"
attr unit bytes
statistic Dynamic.Node:2.queue[0] rxBytes:histogram
field count 1
field mean 4096
field stddev -nan
field min 4096
field max 4096
field sum 4096
field sqrsum 16777216
attr interpolationmode none
attr recordingmode histogram
attr title "received packet byte length"
attr unit bytes
bin	-inf	0
bin	4095	0
bin	4096	1
bin	4097	0
scalar Dynamic.Node:2.queue[0] txBytes:count 0
attr interpolationmode none
attr recordingmode count
attr title "transmitting packet byte length, count"
attr unit bytes
scalar Dynamic.Node:2.queue[0] txBytes:sum 0
attr interpolationmode none
attr recordingmode sum
attr title "transmitting packet byte length, sum"
attr unit bytes
statistic Dynamic.Node:2.queue[0] txBytes:histogram
field count 0
field mean -nan
field stddev -nan
field min -nan
field max -nan
field sum 0
field sqrsum 0
attr interpolationmode none
attr recordingmode histogram
attr title "transmitting packet byte length"
attr unit bytes
bin	-inf	0
bin	0	0
bin	1	0
scalar Dynamic.Node:2.queue[0] busy:timeavg 0
attr interpolationmode sample-hold
attr recordingmode timeavg
attr title "server busy state, timeavg"
scalar Dynamic.Node:2.queue[0] qlen:timeavg 0
attr interpolationmode sample-hold
attr recordingmode timeavg
attr title "queue length, timeavg"
scalar Dynamic.Node:2.queue[0] qlen:max 0
attr interpolationmode sample-hold
attr recordingmode max
attr title "queue length, max"
scalar Dynamic.Node:2.queue[0] drop:count 0
attr interpolationmode none
attr recordingmode count
attr title "dropped packet byte length, count"
attr unit bytes
scalar Dynamic.Node:2.queue[0] drop:sum 0
attr interpolationmode none
attr recordingmode sum
attr title "dropped packet byte length, sum"
attr unit bytes
par Dynamic.Node:2.queue[1] typename "\"node.L2Queue\""
par Dynamic.Node:2.queue[1] frameCapacity 0
par Dynamic.Node:2.queue[1] useCutThroughSwitching false
scalar Dynamic.Node:2.queue[1] rxBytes:count 0
attr interpolationmode none
attr recordingmode count
attr title "received packet byte length, count"
attr unit bytes
scalar Dynamic.Node:2.queue[1] rxBytes:sum 0
attr interpolationmode none
attr recordingmode sum
attr title "received packet byte length, sum"
attr unit bytes
statistic Dynamic.Node:2.queue[1] rxBytes:histogram
field count 0
field mean -nan
field stddev -nan
field min -nan
field max -nan
field sum 0
field sqrsum 0
attr interpolationmode none
attr recordingmode histogram
attr title "received packet byte length"
attr unit bytes
bin	-inf	0
bin	0	0
bin	1	0
scalar Dynamic.Node:2.queue[1] txBytes:count 0
attr interpolationmode none
attr recordingmode count
attr title "transmitting packet byte length, count"
attr unit bytes
scalar Dynamic.Node:2.queue[1] txBytes:sum 0
attr interpolationmode none
attr recordingmode sum
attr title "transmitting packet byte length, sum"
attr unit bytes
statistic Dynamic.Node:2.queue[1] txBytes:histogram
field count 0
field mean -nan
field stddev -nan
field min -nan
field max -nan
field sum 0
field sqrsum 0
attr interpolationmode none
attr recordingmode histogram
attr title "transmitting packet byte length"
attr unit bytes
bin	-inf	0
bin	0	0
bin	1	0
scalar Dynamic.Node:2.queue[1] busy:timeavg 0
attr interpolationmode sample-hold
attr recordingmode timeavg
attr title "server busy state, timeavg"
scalar Dynamic.Node:2.queue[1] qlen:timeavg 0
attr interpolationmode sample-hold
attr recordingmode timeavg
attr title "queue length, timeavg"
scalar Dynamic.Node:2.queue[1] qlen:max 0
attr interpolationmode sample-hold
attr recordingmode max
attr title "queue length, max"
scalar Dynamic.Node:2.queue[1] drop:count 0
attr interpolationmode none
attr recordingmode count
attr title "dropped packet byte length, count"
attr unit bytes
scalar Dynamic.Node:2.queue[1] drop:sum 0
attr interpolationmode none
attr recordingmode sum
attr title "dropped packet byte length, sum"
attr unit bytes
par Dynamic.Node:2 typename "\"node.Node\""
par Dynamic.Node:2 address 2
par Dynamic.Node:2 appType "\"App\""
par Dynamic.Node:3.app typename "\"node.App\""
par Dynamic.Node:3.app address 3
par Dynamic.Node:3.app destAddresses "\"1 50\""
par Dynamic.Node:3.app sendIaTime exponential(1s)
attr unit s
par Dynamic.Node:3.app packetLength 4096byte
attr unit byte
scalar Dynamic.Node:3.app hopCount:mean 6
attr interpolationmode none
attr recordingmode mean
attr title "hop count of arrived packets, mean"
scalar Dynamic.Node:3.app hopCount:max 6
attr interpolationmode none
attr recordingmode max
attr title "hop count of arrived packets, max"
scalar Dynamic.Node:3.app endToEndDelay:mean 0.256608
attr interpolationmode none
attr recordingmode mean
attr title "end-to-end delay of arrived packets, mean"
attr unit s
scalar Dynamic.Node:3.app endToEndDelay:max 0.256608
attr interpolationmode none
attr recordingmode max
attr title "end-to-end delay of arrived packets, max"
attr unit s
par Dynamic.Node:3.routing typename "\"node.Routing\""
statistic Dynamic.Node:3.routing outputIf:histogram
field count 3
field mean 0.33333333333333
field stddev 1.1547005383793
field min -1
field max 1
field sum 1
field sqrsum 3
attr interpolationmode none
attr recordingmode histogram
attr title "output interface for each routed packet"
bin	-inf	0
bin	-2	0
bin	-1	1
bin	0	0
bin	1	2
bin	2	0
scalar Dynamic.Node:3.routing drop:count 0
attr interpolationmode none
attr recordingmode count
attr title "dropped packet byte length, count"
attr unit bytes
scalar Dynamic.Node:3.routing drop:sum 0
attr interpolationmode none
attr recordingmode sum
attr title "dropped packet byte length, sum"
attr unit bytes
par Dynamic.Node:3.queue[0] typename "\"node.L2Queue\""
par Dynamic.Node:3.queue[0] frameCapacity 0
par Dynamic.Node:3.queue[0] useCutThroughSwitching false
scalar Dynamic.Node:3.queue[0] rxBytes:count 2
attr interpolationmode none
attr recordingmode count
attr title "received packet byte length, count"
attr unit bytes
scalar Dynamic.Node:3.queue[0] rxBytes:sum 8192
attr interpolationmode none
attr recordingmode sum
attr title "received packet byte length, sum"
attr unit bytes
statistic Dynamic.Node:3.queue[0] rxBytes:histogram
field count 2
field mean 4096
field stddev 0
field min 4096
field max 4096
field sum 8192
field sqrsum 33554432
attr interpolationmode none
attr recordingmode histogram
attr title "received packet byte length"
attr unit bytes
bin	-inf	0
bin	4095	0
bin	4096	2
bin	4097	0
scalar Dynamic.Node:3.queue[0] txBytes:count 0
attr interpolationmode none
attr recordingmode count
attr title "transmitting packet byte length, count"
attr unit bytes
scalar Dynamic.Node:3.queue[0] txBytes:sum 0
attr interpolationmode none
attr recordingmode sum
attr title "transmitting packet byte length, sum"
attr unit bytes
statistic Dynamic.Node:3.queue[0] txBytes:histogram
field count 0
field mean -nan
field stddev -nan
field min -nan
field max -nan
field sum 0
field sqrsum 0
attr interpolationmode none
attr recordingmode histogram
attr title "transmitting packet byte length"
attr unit bytes
bin	-inf	0
bin	0	0
bin	1	0
scalar Dynamic.Node:3.queue[0] busy:timeavg 0
attr interpolationmode sample-hold
attr recordingmode timeavg
attr title "server busy state, timeavg"
scalar Dynamic.Node:3.queue[0] qlen:timeavg 0
attr interpolationmode sample-hold
attr recordingmode timeavg
attr title "queue length, timeavg"
scalar Dynamic.Node:3.queue[0] qlen:max 0
attr interpolationmode sample-hold
attr recordingmode max
attr title "queue length, max"
scalar Dynamic.Node:3.queue[0] drop:count 0
attr interpolationmode none
attr recordingmode count
attr title "dropped packet byte length, count"
attr unit bytes
scalar Dynamic.Node:3.queue[0] drop:sum 0
attr interpolationmode none
attr recordingmode sum
attr title "dropped packet byte length, sum"
attr unit bytes
par Dynamic.Node:3.queue[1] typename "\"node.L2Queue\""
par Dynamic.Node:3.queue[1] frameCapacity 0
par Dynamic.Node:3.queue[1] useCutThroughSwitching false
scalar Dynamic.Node:3.queue[1] rxBytes:count 1
attr interpolationmode none
attr recordingmode count
attr title "received packet byte length, count"
attr unit bytes
scalar Dynamic.Node:3.queue[1] rxBytes:sum 4096
attr interpolationmode none
attr recordingmode sum
attr title "received packet byte length, sum"
attr unit bytes
statistic Dynamic.Node:3.queue[1] rxBytes:histogram
field count 1
field mean 4096
field stddev -nan
field min 4096
field max 4096
field sum 4096
field sqrsum 16777216
attr interpolationmode none
attr recordingmode histogram
attr title "received packet byte length"
attr unit bytes
bin	-inf	0
bin	4095	0
bin	4096	1
bin	4097	0
scalar Dynamic.Node:3.queue[1] txBytes:count 2
attr interpolationmode none
attr recordingmode count
attr title "transmitting packet byte length, count"
attr unit bytes
scalar Dynamic.Node:3.queue[1] txBytes:sum 8192
attr interpolationmode none
attr recordingmode sum
attr title "transmitting packet byte length, sum"
attr unit bytes
statistic Dynamic.Node:3.queue[1] txBytes:histogram
field count 2
field mean 4096
field stddev 0
field min 4096
field max 4096
field sum 8192
field sqrsum 33554432
attr interpolationmode none
attr recordingmode histogram
attr title "transmitting packet byte length"
attr unit bytes
bin	-inf	0
bin	4095	0
bin	4096	2
bin	4097	0
scalar Dynamic.Node:3.queue[1] busy:timeavg 0.025988030398175
attr interpolationmode sample-hold
attr recordingmode timeavg
attr title "server busy state, timeavg"
scalar Dynamic.Node:3.queue[1] qlen:timeavg 0
attr interpolationmode sample-hold
attr recordingmode timeavg
attr title "queue length, timeavg"
scalar Dynamic.Node:3.queue[1] qlen:max 0
attr interpolationmode sample-hold
attr recordingmode max
attr title "queue length, max"
scalar Dynamic.Node:3.queue[1] drop:count 0
attr interpolationmode none
attr recordingmode count
attr title "dropped packet byte length, count"
attr unit bytes
scalar Dynamic.Node:3.queue[1] drop:sum 0
attr interpolationmode none
attr recordingmode sum
attr title "dropped packet byte length, sum"
attr unit bytes
par Dynamic.Node:3 typename "\"node.Node\""
par Dynamic.Node:3 address 3
par Dynamic.Node:3 appType "\"App\""
par Dynamic.Node:4.app typename "\"node.App\""
par Dynamic.Node:4.app address 4
par Dynamic.Node:4.app destAddresses "\"1 50\""
par Dynamic.Node:4.app sendIaTime exponential(1s)
attr unit s
par Dynamic.Node:4.app packetLength 4096byte
attr unit byte
scalar Dynamic.Node:4.app hopCount:mean 6
attr interpolationmode none
attr recordingmode mean
attr title "hop count of arrived packets, mean"
[...]
attr unit bytes
scalar Dynamic.Node:53.queue[3] txBytes:sum 12288
attr interpolationmode none
attr recordingmode sum
attr title "transmitting packet byte length, sum"
attr unit bytes
statistic Dynamic.Node:53.queue[3] txBytes:histogram
field count 3
field mean 4096
field stddev 0
field min 4096
field max 4096
field sum 12288
field sqrsum 50331648
attr interpolationmode none
attr recordingmode histogram
attr title "transmitting packet byte length"
attr unit bytes
bin	-inf	0
bin	4095	0
bin	4096	3
bin	4097	0
scalar Dynamic.Node:53.queue[3] busy:timeavg 0.038982045597262
attr interpolationmode sample-hold
attr recordingmode timeavg
attr title "server busy state, timeavg"
scalar Dynamic.Node:53.queue[3] qlen:timeavg 0
attr interpolationmode sample-hold
attr recordingmode timeavg
attr title "queue length, timeavg"
scalar Dynamic.Node:53.queue[3] qlen:max 0
attr interpolationmode sample-hold
attr recordingmode max
attr title "queue length, max"
scalar Dynamic.Node:53.queue[3] drop:count 0
attr interpolationmode none
attr recordingmode count
attr title "dropped packet byte length, count"
attr unit bytes
scalar Dynamic.Node:53.queue[3] drop:sum 0
attr interpolationmode none
attr recordingmode sum
attr title "dropped packet byte length, sum"
attr unit bytes
par Dynamic.Node:53 typename "\"node.Node\""
par Dynamic.Node:53 address 53
par Dynamic.Node:53 appType "\"App\""
par Dynamic.Node:54.app typename "\"node.App\""
par Dynamic.Node:54.app address 54
par Dynamic.Node:54.app destAddresses "\"1 50\""
par Dynamic.Node:54.app sendIaTime exponential(1s)
attr unit s
par Dynamic.Node:54.app packetLength 4096byte
attr unit byte
scalar Dynamic.Node:54.app hopCount:mean -nan
attr interpolationmode none
attr recordingmode mean
attr title "hop count of arrived packets, mean"
scalar Dynamic.Node:54.app hopCount:max -nan
attr interpolationmode none
attr recordingmode max
attr title "hop count of arrived packets, max"
scalar Dynamic.Node:54.app endToEndDelay:mean -nan
attr interpolationmode none
attr recordingmode mean
attr title "end-to-end delay of arrived packets, mean"
attr unit s
scalar Dynamic.Node:54.app endToEndDelay:max -nan
attr interpolationmode none
attr recordingmode max
attr title "end-to-end delay of arrived packets, max"
attr unit s
par Dynamic.Node:54.routing typename "\"node.Routing\""
statistic Dynamic.Node:54.routing outputIf:histogram
field count 0
field mean -nan
field stddev -nan
field min -nan
field max -nan
field sum 0
field sqrsum 0
attr interpolationmode none
attr recordingmode histogram
attr title "output interface for each routed packet"
bin	-inf	0
bin	0	0
bin	1	0
scalar Dynamic.Node:54.routing drop:count 0
attr interpolationmode none
attr recordingmode count
attr title "dropped packet byte length, count"
attr unit bytes
scalar Dynamic.Node:54.routing drop:sum 0
attr interpolationmode none
attr recordingmode sum
attr title "dropped packet byte length, sum"
attr unit bytes
par Dynamic.Node:54.queue[0] typename "\"node.L2Queue\""
par Dynamic.Node:54.queue[0] frameCapacity 0
par Dynamic.Node:54.queue[0] useCutThroughSwitching false
scalar Dynamic.Node:54.queue[0] rxBytes:count 0
attr interpolationmode none
attr recordingmode count
attr title "received packet byte length, count"
attr unit bytes
scalar Dynamic.Node:54.queue[0] rxBytes:sum 0
attr interpolationmode none
attr recordingmode sum
attr title "received packet byte length, sum"
attr unit bytes
statistic Dynamic.Node:54.queue[0] rxBytes:histogram
field count 0
field mean -nan
field stddev -nan
field min -nan
field max -nan
field sum 0
field sqrsum 0
attr interpolationmode none
attr recordingmode histogram
attr title "received packet byte length"
attr unit bytes
bin	-inf	0
bin	0	0
bin	1	0
scalar Dynamic.Node:54.queue[0] txBytes:count 0
attr interpolationmode none
attr recordingmode count
attr title "transmitting packet byte length, count"
attr unit bytes
scalar Dynamic.Node:54.queue[0] txBytes:sum 0
attr interpolationmode none
attr recordingmode sum
attr title "transmitting packet byte length, sum"
attr unit bytes
statistic Dynamic.Node:54.queue[0] txBytes:histogram
field count 0
field mean -nan
field stddev -nan
field min -nan
field max -nan
field sum 0
field sqrsum 0
attr interpolationmode none
attr recordingmode histogram
attr title "transmitting packet byte length"
attr unit bytes
bin	-inf	0
bin	0	0
bin	1	0
scalar Dynamic.Node:54.queue[0] busy:timeavg 0
attr interpolationmode sample-hold
attr recordingmode timeavg
attr title "server busy state, timeavg"
scalar Dynamic.Node:54.queue[0] qlen:timeavg 0
attr interpolationmode sample-hold
attr recordingmode timeavg
attr title "queue length, timeavg"
scalar Dynamic.Node:54.queue[0] qlen:max 0
attr interpolationmode sample-hold
attr recordingmode max
attr title "queue length, max"
scalar Dynamic.Node:54.queue[0] drop:count 0
attr interpolationmode none
attr recordingmode count
attr title "dropped packet byte length, count"
attr unit bytes
scalar Dynamic.Node:54.queue[0] drop:sum 0
attr interpolationmode none
attr recordingmode sum
attr title "dropped packet byte length, sum"
attr unit bytes
par Dynamic.Node:54.queue[1] typename "\"node.L2Queue\""
par Dynamic.Node:54.queue[1] frameCapacity 0
par Dynamic.Node:54.queue[1] useCutThroughSwitching false
scalar Dynamic.Node:54.queue[1] rxBytes:count 0
attr interpolationmode none
attr recordingmode count
attr title "received packet byte length, count"
attr unit bytes
scalar Dynamic.Node:54.queue[1] rxBytes:sum 0
attr interpolationmode none
attr recordingmode sum
attr title "received packet byte length, sum"
attr unit bytes
statistic Dynamic.Node:54.queue[1] rxBytes:histogram
field count 0
field mean -nan
field stddev -nan
field min -nan
field max -nan
field sum 0
field sqrsum 0
attr interpolationmode none
attr recordingmode histogram
attr title "received packet byte length"
attr unit bytes
bin	-inf	0
bin	0	0
bin	1	0
scalar Dynamic.Node:54.queue[1] txBytes:count 0
attr interpolationmode none
attr recordingmode count
attr title "transmitting packet byte length, count"
attr unit bytes
scalar Dynamic.Node:54.queue[1] txBytes:sum 0
attr interpolationmode none
attr recordingmode sum
attr title "transmitting packet byte length, sum"
attr unit bytes
statistic Dynamic.Node:54.queue[1] txBytes:histogram
field count 0
field mean -nan
field stddev -nan
field min -nan
field max -nan
field sum 0
field sqrsum 0
attr interpolationmode none
attr recordingmode histogram
attr title "transmitting packet byte length"
attr unit bytes
bin	-inf	0
bin	0	0
bin	1	0
scalar Dynamic.Node:54.queue[1] busy:timeavg 0
attr interpolationmode sample-hold
attr recordingmode timeavg
attr title "server busy state, timeavg"
scalar Dynamic.Node:54.queue[1] qlen:timeavg 0
attr interpolationmode sample-hold
attr recordingmode timeavg
attr title "queue length, timeavg"
scalar Dynamic.Node:54.queue[1] qlen:max 0
attr interpolationmode sample-hold
attr recordingmode max
attr title "queue length, max"
scalar Dynamic.Node:54.queue[1] drop:count 0
attr interpolationmode none
attr recordingmode count
attr title "dropped packet byte length, count"
attr unit bytes
scalar Dynamic.Node:54.queue[1] drop:sum 0
attr interpolationmode none
attr recordingmode sum
attr title "dropped packet byte length, sum"
attr unit bytes
par Dynamic.Node:54.queue[2] typename "\"node.L2Queue\""
par Dynamic.Node:54.queue[2] frameCapacity 0
par Dynamic.Node:54.queue[2] useCutThroughSwitching false
scalar Dynamic.Node:54.queue[2] rxBytes:count 0
attr interpolationmode none
attr recordingmode count
attr title "received packet byte length, count"
attr unit bytes
scalar Dynamic.Node:54.queue[2] rxBytes:sum 0
attr interpolationmode none
attr recordingmode sum
attr title "received packet byte length, sum"
attr unit bytes
statistic Dynamic.Node:54.queue[2] rxBytes:histogram
field count 0
field mean -nan
field stddev -nan
field min -nan
field max -nan
field sum 0
field sqrsum 0
attr interpolationmode none
attr recordingmode histogram
attr title "received packet byte length"
attr unit bytes
bin	-inf	0
bin	0	0
bin	1	0
scalar Dynamic.Node:54.queue[2] txBytes:count 0
attr interpolationmode none
attr recordingmode count
attr title "transmitting packet byte length, count"
attr unit bytes
scalar Dynamic.Node:54.queue[2] txBytes:sum 0
attr interpolationmode none
attr recordingmode sum
attr title "transmitting packet byte length, sum"
attr unit bytes
statistic Dynamic.Node:54.queue[2] txBytes:histogram
field count 0
field mean -nan
field stddev -nan
field min -nan
field max -nan
field sum 0
field sqrsum 0
attr interpolationmode none
attr recordingmode histogram
attr title "transmitting packet byte length"
attr unit bytes
bin	-inf	0
bin	0	0
bin	1	0
scalar Dynamic.Node:54.queue[2] busy:timeavg 0
attr interpolationmode sample-hold
attr recordingmode timeavg
attr title "server busy state, timeavg"
scalar Dynamic.Node:54.queue[2] qlen:timeavg 0
attr interpolationmode sample-hold
attr recordingmode timeavg
attr title "queue length, timeavg"
scalar Dynamic.Node:54.queue[2] qlen:max 0
attr interpolationmode sample-hold
attr recordingmode max
attr title "queue length, max"
scalar Dynamic.Node:54.queue[2] drop:count 0
attr interpolationmode none
attr recordingmode count
attr title "dropped packet byte length, count"
attr unit bytes
scalar Dynamic.Node:54.queue[2] drop:sum 0
attr interpolationmode none
attr recordingmode sum
attr title "dropped packet byte length, sum"
attr unit bytes
par Dynamic.Node:54 typename "\"node.Node\""
par Dynamic.Node:54 address 54
par Dynamic.Node:54 appType "\"App\""
par Dynamic.Node:55.app typename "\"node.App\""
par Dynamic.Node:55.app address 55
par Dynamic.Node:55.app destAddresses "\"1 50\""
par Dynamic.Node:55.app sendIaTime exponential(1s)
attr unit s
par Dynamic.Node:55.app packetLength 4096byte
attr unit byte
scalar Dynamic.Node:55.app hopCount:mean -nan
attr interpolationmode none
attr recordingmode mean
attr title "hop count of arrived packets, mean"
scalar Dynamic.Node:55.app hopCount:max -nan
attr interpolationmode none
attr recordingmode max
attr title "hop count of arrived packets, max"
scalar Dynamic.Node:55.app endToEndDelay:mean -nan
attr interpolationmode none
attr recordingmode mean
attr title "end-to-end delay of arrived packets, mean"
attr unit s
scalar Dynamic.Node:55.app endToEndDelay:max -nan
attr interpolationmode none
attr recordingmode max
attr title "end-to-end delay of arrived packets, max"
attr unit s
par Dynamic.Node:55.routing typename "\"node.Routing\""
statistic Dynamic.Node:55.routing outputIf:histogram
field count 0
field mean -nan
field stddev -nan
field min -nan
field max -nan
field sum 0
field sqrsum 0
attr interpolationmode none
attr recordingmode histogram
attr title "output interface for each routed packet"
bin	-inf	0
bin	0	0
bin	1	0
scalar Dynamic.Node:55.routing drop:count 0
attr interpolationmode none
attr recordingmode count
attr title "dropped packet byte length, count"
attr unit bytes
scalar Dynamic.Node:55.routing drop:sum 0
attr interpolationmode none
attr recordingmode sum
attr title "dropped packet byte length, sum"
attr unit bytes
par Dynamic.Node:55.queue[0] typename "\"node.L2Queue\""
par Dynamic.Node:55.queue[0] frameCapacity 0
par Dynamic.Node:55.queue[0] useCutThroughSwitching false
scalar Dynamic.Node:55.queue[0] rxBytes:count 0
attr interpolationmode none
attr recordingmode count
attr title "received packet byte length, count"
attr unit bytes
scalar Dynamic.Node:55.queue[0] rxBytes:sum 0
attr interpolationmode none
attr recordingmode sum
attr title "received packet byte length, sum"
attr unit bytes
statistic Dynamic.Node:55.queue[0] rxBytes:histogram
field count 0
field mean -nan
field stddev -nan
field min -nan
field max -nan
field sum 0
field sqrsum 0
attr interpolationmode none
attr recordingmode histogram
attr title "received packet byte length"
attr unit bytes
bin	-inf	0
bin	0	0
bin	1	0
scalar Dynamic.Node:55.queue[0] txBytes:count 0
attr interpolationmode none
attr recordingmode count
attr title "transmitting packet byte length, count"
attr unit bytes
scalar Dynamic.Node:55.queue[0] txBytes:sum 0
attr interpolationmode none
attr recordingmode sum
attr title "transmitting packet byte length, sum"
attr unit bytes
statistic Dynamic.Node:55.queue[0] txBytes:histogram
field count 0
field mean -nan
field stddev -nan
field min -nan
field max -nan
field sum 0
field sqrsum 0
attr interpolationmode none
attr recordingmode histogram
attr title "transmitting packet byte length"
attr unit bytes
bin	-inf	0
bin	0	0
bin	1	0
scalar Dynamic.Node:55.queue[0] busy:timeavg 0
attr interpolationmode sample-hold
attr recordingmode timeavg
attr title "server busy state, timeavg"
scalar Dynamic.Node:55.queue[0] qlen:timeavg 0
attr interpolationmode sample-hold
attr recordingmode timeavg
attr title "queue length, timeavg"
scalar Dynamic.Node:55.queue[0] qlen:max 0
attr interpolationmode sample-hold
attr recordingmode max
attr title "queue length, max"
scalar Dynamic.Node:55.queue[0] drop:count 0
attr interpolationmode none
attr recordingmode count
attr title "dropped packet byte length, count"
attr unit bytes
scalar Dynamic.Node:55.queue[0] drop:sum 0
attr interpolationmode none
attr recordingmode sum
attr title "dropped packet byte length, sum"
attr unit bytes
par Dynamic.Node:55 typename "\"node.Node\""
par Dynamic.Node:55 address 55
par Dynamic.Node:55 appType "\"App\""
par Dynamic.Node:56.app typename "\"node.App\""
par Dynamic.Node:56.app address 56
par Dynamic.Node:56.app destAddresses "\"1 50\""
par Dynamic.Node:56.app sendIaTime exponential(1s)
attr unit s
par Dynamic.Node:56.app packetLength 4096byte
attr unit byte
scalar Dynamic.Node:56.app hopCount:mean -nan
attr interpolationmode none
attr recordingmode mean
attr title "hop count of arrived packets, mean"
scalar Dynamic.Node:56.app hopCount:max -nan
attr interpolationmode none
attr recordingmode max
attr title "hop count of arrived packets, max"
scalar Dynamic.Node:56.app endToEndDelay:mean -nan
attr interpolationmode none
attr recordingmode mean
attr title "end-to-end delay of arrived packets, mean"
attr unit s
scalar Dynamic.Node:56.app endToEndDelay:max -nan
attr interpolationmode none
attr recordingmode max
attr title "end-to-end delay of arrived packets, max"
attr unit s
par Dynamic.Node:56.routing typename "\"node.Routing\""
statistic Dynamic.Node:56.routing outputIf:histogram
field count 1
field mean 0
field stddev -nan
field min 0
field max 0
field sum 0
field sqrsum 0
attr interpolationmode none
attr recordingmode histogram
attr title "output interface for each routed packet"
bin	-inf	0
bin	-0.5	0
bin	-0.48	0
bin	-0.46	0
bin	-0.44	0
bin	-0.42	0
bin	-0.4	0
bin	-0.38	0
bin	-0.36	0
bin	-0.34	0
bin	-0.32	0
bin	-0.3	0
bin	-0.28	0
bin	-0.26	0
bin	-0.24	0
bin	-0.22	0
bin	-0.2	0
bin	-0.18	0
bin	-0.16	0
bin	-0.14	0
bin	-0.12	0
bin	-0.1	0
bin	-0.08	0
bin	-0.06	0
bin	-0.04	0
bin	-0.02	0
bin	0	1
bin	0.02	0
bin	0.04	0
bin	0.06	0
bin	0.08	0
bin	0.1	0
bin	0.12	0
bin	0.14	0
bin	0.16	0
bin	0.18	0
bin	0.2	0
bin	0.22	0
bin	0.24	0
bin	0.26	0
bin	0.28	0
bin	0.3	0
bin	0.32	0
bin	0.34	0
bin	0.36	0
bin	0.38	0
bin	0.4	0
bin	0.42	0
bin	0.44	0
bin	0.46	0
bin	0.48	0
bin	0.5	0
scalar Dynamic.Node:56.routing drop:count 0
attr interpolationmode none
attr recordingmode count
attr title "dropped packet byte length, count"
attr unit bytes
scalar Dynamic.Node:56.routing drop:sum 0
attr interpolationmode none
attr recordingmode sum
attr title "dropped packet byte length, sum"
attr unit bytes
par Dynamic.Node:56.queue[0] typename "\"node.L2Queue\""
par Dynamic.Node:56.queue[0] frameCapacity 0
par Dynamic.Node:56.queue[0] useCutThroughSwitching false
scalar Dynamic.Node:56.queue[0] rxBytes:count 0
attr interpolationmode none
attr recordingmode count
attr title "received packet byte length, count"
attr unit bytes
scalar Dynamic.Node:56.queue[0] rxBytes:sum 0
attr interpolationmode none
attr recordingmode sum
attr title "received packet byte length, sum"
attr unit bytes
statistic Dynamic.Node:56.queue[0] rxBytes:histogram
field count 0
field mean -nan
field stddev -nan
field min -nan
field max -nan
field sum 0
field sqrsum 0
attr interpolationmode none
attr recordingmode histogram
attr title "received packet byte length"
attr unit bytes
bin	-inf	0
bin	0	0
bin	1	0
scalar Dynamic.Node:56.queue[0] txBytes:count 1
attr interpolationmode none
attr recordingmode count
attr title "transmitting packet byte length, count"
attr unit bytes
scalar Dynamic.Node:56.queue[0] txBytes:sum 4096
attr interpolationmode none
attr recordingmode sum
attr title "transmitting packet byte length, sum"
attr unit bytes
statistic Dynamic.Node:56.queue[0] txBytes:histogram
field count 1
field mean 4096
field stddev -nan
field min 4096
field max 4096
field sum 4096
field sqrsum 16777216
attr interpolationmode none
attr recordingmode histogram
attr title "transmitting packet byte length"
attr unit bytes
bin	-inf	0
bin	4095	0
bin	4096	1
bin	4097	0
scalar Dynamic.Node:56.queue[0] busy:timeavg 0.012994015199087
attr interpolationmode sample-hold
attr recordingmode timeavg
attr title "server busy state, timeavg"
scalar Dynamic.Node:56.queue[0] qlen:timeavg 0
attr interpolationmode sample-hold
attr recordingmode timeavg
attr title "queue length, timeavg"
scalar Dynamic.Node:56.queue[0] qlen:max 0
attr interpolationmode sample-hold
attr recordingmode max
attr title "queue length, max"
scalar Dynamic.Node:56.queue[0] drop:count 0
attr interpolationmode none
attr recordingmode count
attr title "dropped packet byte length, count"
attr unit bytes
scalar Dynamic.Node:56.queue[0] drop:sum 0
attr interpolationmode none
attr recordingmode sum
attr title "dropped packet byte length, sum"
attr unit bytes
par Dynamic.Node:56.queue[1] typename "\"node.L2Queue\""
par Dynamic.Node:56.queue[1] frameCapacity 0
par Dynamic.Node:56.queue[1] useCutThroughSwitching false
scalar Dynamic.Node:56.queue[1] rxBytes:count 1
attr interpolationmode none
attr recordingmode count
attr title "received packet byte length, count"
attr unit bytes
scalar Dynamic.Node:56.queue[1] rxBytes:sum 4096
attr interpolationmode none
attr recordingmode sum
attr title "received packet byte length, sum"
attr unit bytes
statistic Dynamic.Node:56.queue[1] rxBytes:histogram
field count 1
field mean 4096
field stddev -nan
field min 4096
field max 4096
field sum 4096
field sqrsum 16777216
attr interpolationmode none
attr recordingmode histogram
attr title "received packet byte length"
attr unit bytes
bin	-inf	0
bin	4095	0
bin	4096	1
bin	4097	0
scalar Dynamic.Node:56.queue[1] txBytes:count 0
attr interpolationmode none
attr recordingmode count
attr title "transmitting packet byte length, count"
attr unit bytes
scalar Dynamic.Node:56.queue[1] txBytes:sum 0
attr interpolationmode none
attr recordingmode sum
attr title "transmitting packet byte length, sum"
attr unit bytes
statistic Dynamic.Node:56.queue[1] txBytes:histogram
field count 0
field mean -nan
field stddev -nan
field min -nan
field max -nan
field sum 0
field sqrsum 0
attr interpolationmode none
attr recordingmode histogram
attr title "transmitting packet byte length"
attr unit bytes
bin	-inf	0
bin	0	0
bin	1	0
scalar Dynamic.Node:56.queue[1] busy:timeavg 0
attr interpolationmode sample-hold
attr recordingmode timeavg
attr title "server busy state, timeavg"
scalar Dynamic.Node:56.queue[1] qlen:timeavg 0
attr interpolationmode sample-hold
attr recordingmode timeavg
attr title "queue length, timeavg"
scalar Dynamic.Node:56.queue[1] qlen:max 0
attr interpolationmode sample-hold
attr recordingmode max
attr title "queue length, max"
scalar Dynamic.Node:56.queue[1] drop:count 0
attr interpolationmode none
attr recordingmode count
attr title "dropped packet byte length, count"
attr unit bytes
scalar Dynamic.Node:56.queue[1] drop:sum 0
attr interpolationmode none
attr recordingmode sum
attr title "dropped packet byte length, sum"
attr unit bytes
par Dynamic.Node:56 typename "\"node.Node\""
par Dynamic.Node:56 address 56
par Dynamic.Node:56 appType "\"App\""
par Dynamic typename "\"networks.Dynamic\""

